#	Name: ASD03430824
#	Creating user name:	WinNT
#	Creation time:	15. 06. 2019 20:41

#	Modifying user name:	WinNT
#	Modification time:	15. 06. 2019 20:41

#	Program:	/corina/corina34_cracker 3.40 0067  02.08.2006

@<TRIPOS>MOLECULE
ASD03430824
  58   64    0    0    0
SMALL
NO_CHARGES


@<TRIPOS>ATOM
   1 C1            -0.0166     1.3732     0.0096 C.ar    
   2 C2             0.0021    -0.0041     0.0020 C.ar    
   3 C3             1.2044    -0.6792    -0.0064 C.ar    
   4 C4             2.4067     0.0232     0.0038 C.ar    
   5 C5             2.3789     1.4126     0.0035 C.ar    
   6 C6             1.1696     2.0973     0.0022 C.ar    
   7 O7             3.4726    -0.8267     0.0249 O.3     
   8 C8             1.5600    -2.1407    -0.0400 C.3     
   9 C9             3.0490    -2.1320    -0.4131 C.3     
  10 C10            0.4334    -3.8624     1.0030 C.ar    
  11 C11            1.3166    -2.8201     1.2748 C.ar    
  12 C12            0.7388    -2.9030    -1.0400 C.2     
  13 N13            0.1149    -3.8833    -0.3570 N.am    
  14 O14            0.6534    -2.6800    -2.2291 O.2     
  15 C15            1.7727    -2.6048     2.5557 C.ar    
  16 C16            1.3547    -3.4265     3.5878 C.ar    
  17 C17            0.4778    -4.4638     3.3295 C.ar    
  18 C18            0.0175    -4.6837     2.0476 C.ar    
  19 C19           -0.7919    -4.8574    -0.9696 C.3     
  20 O20            0.9262     3.4374    -0.0160 O.3     
  21 C21           -2.2005    -4.3229    -0.9358 C.ar    
  22 C22           -1.1520     2.3777     0.0348 C.3     
  23 C23           -0.4181     3.6804     0.4320 C.3     
  24 C24           -2.6747    -3.5636    -1.9905 C.ar    
  25 C25           -3.9637    -3.0718    -1.9655 C.ar    
  26 C26           -4.7888    -3.3416    -0.8743 C.ar    
  27 C27           -4.3052    -4.1075     0.1858 C.ar    
  28 C28           -3.0161    -4.5983     0.1471 C.ar    
  29 C29           -6.1739    -2.8160    -0.8411 C.ar    
  30 C30           -7.2499    -3.6743    -0.5490 C.ar    
  31 C31           -6.4179    -1.4693    -1.0930 C.ar    
  32 C32           -7.7099    -0.9834    -1.0607 C.ar    
  33 C33           -8.7704    -1.8281    -0.7785 C.ar    
  34 C34           -8.5487    -3.1652    -0.5208 C.ar    
  35 C35           -7.0136    -5.0614    -0.2828 C.1     
  36 N36           -6.8262    -6.1617    -0.0717 N.1     
  37 H37           -0.9263    -0.5560     0.0031 H       
  38 H38            3.3064     1.9659     0.0046 H       
  39 H39            3.1788    -2.2399    -1.4900 H       
  40 H40            3.5870    -2.9137     0.1230 H       
  41 H41            2.4576    -1.7940     2.7553 H       
  42 H42            1.7130    -3.2582     4.5926 H       
  43 H43            0.1520    -5.1053     4.1350 H       
  44 H44           -0.6678    -5.4955     1.8537 H       
  45 H45           -0.4938    -5.0310    -2.0035 H       
  46 H46           -0.7457    -5.7951    -0.4158 H       
  47 H47           -1.6095     2.4731    -0.9500 H       
  48 H48           -1.8959     2.1059     0.7836 H       
  49 H49           -0.4451     3.8249     1.5120 H       
  50 H50           -0.8480     4.5386    -0.0844 H       
  51 H51           -2.0346    -3.3550    -2.8350 H       
  52 H52           -4.3327    -2.4788    -2.7893 H       
  53 H53           -4.9397    -4.3197     1.0336 H       
  54 H54           -2.6406    -5.1919     0.9674 H       
  55 H55           -5.5963    -0.8039    -1.3135 H       
  56 H56           -7.8947     0.0626    -1.2564 H       
  57 H57           -9.7767    -1.4368    -0.7556 H       
  58 H58           -9.3804    -3.8183    -0.3015 H       
@<TRIPOS>BOND
   1    1    2 ar
   2    1    6 ar
   3    1   22 1
   4    2    3 ar
   5    2   37 1
   6    3    4 ar
   7    3    8 1
   8    4    5 ar
   9    4    7 1
  10    5    6 ar
  11    5   38 1
  12    6   20 1
  13    7    9 1
  14    8    9 1
  15    8   11 1
  16    8   12 1
  17    9   39 1
  18    9   40 1
  19   10   11 ar
  20   10   13 1
  21   10   18 ar
  22   11   15 ar
  23   12   13 am
  24   12   14 2
  25   13   19 1
  26   15   16 ar
  27   15   41 1
  28   16   17 ar
  29   16   42 1
  30   17   18 ar
  31   17   43 1
  32   18   44 1
  33   19   21 1
  34   19   45 1
  35   19   46 1
  36   20   23 1
  37   21   24 ar
  38   21   28 ar
  39   22   23 1
  40   22   47 1
  41   22   48 1
  42   23   49 1
  43   23   50 1
  44   24   25 ar
  45   24   51 1
  46   25   26 ar
  47   25   52 1
  48   26   27 ar
  49   26   29 1
  50   27   28 ar
  51   27   53 1
  52   28   54 1
  53   29   30 ar
  54   29   31 ar
  55   30   35 1
  56   30   34 ar
  57   31   32 ar
  58   31   55 1
  59   32   33 ar
  60   32   56 1
  61   33   34 ar
  62   33   57 1
  63   34   58 1
  64   35   36 3

#	End of record

