#	Name: ASD01900600
#	Creating user name:	WinNT
#	Creation time:	15. 06. 2019 19:52

#	Modifying user name:	WinNT
#	Modification time:	15. 06. 2019 19:52

#	Program:	/corina/corina34_cracker 3.40 0067  02.08.2006

@<TRIPOS>MOLECULE
ASD01900600
  37   40    0    0    0
SMALL
NO_CHARGES


@<TRIPOS>ATOM
   1 S1            -0.0211     1.7047     0.0114 S.3     
   2 C2             0.0021    -0.0041     0.0020 C.2     
   3 N3             1.2124    -0.4402    -0.0119 N.2     
   4 C4             2.1824     0.4657    -0.0163 C.2     
   5 C5             1.7401     1.7433    -0.0052 C.2     
   6 C6             3.6155     0.1103    -0.0314 C.2     
   7 N7             4.1105    -1.1665    -0.0430 N.pl3   
   8 C8             5.4898    -1.0702    -0.0557 C.ar    
   9 C9             5.7873     0.3040    -0.0511 C.ar    
  10 N10            4.6062     0.9701    -0.0415 N.2     
  11 C11            7.1227     0.7183    -0.0616 C.ar    
  12 C12            8.1295    -0.2202    -0.0762 C.ar    
  13 C13            7.8300    -1.5747    -0.0807 C.ar    
  14 C14            6.5181    -2.0010    -0.0705 C.ar    
  15 S15            9.8119     0.3030    -0.0900 S.o2    
  16 O16           10.5079    -0.7710    -0.7076 O.2     
  17 O17            9.7734     1.5913    -0.6884 O.2     
  18 C18           10.2613     0.4285     1.6629 C.3     
  19 C19           11.6961     0.8736     1.7831 C.ar    
  20 C20           11.9991     2.2222     1.8475 C.ar    
  21 C21           13.3163     2.6300     1.9583 C.ar    
  22 C22           14.3290     1.6902     2.0045 C.ar    
  23 C23           14.0257     0.3432     1.9396 C.ar    
  24 C24           12.7089    -0.0652     1.8346 C.ar    
  25 Cl25          10.7269     3.4019     1.7889 Cl      
  26 H26           -0.8773    -0.6310     0.0074 H       
  27 H27            2.3568     2.6299    -0.0063 H       
  28 H28            3.5906    -1.9854    -0.0420 H       
  29 H29            7.3633     1.7711    -0.0586 H       
  30 H30            8.6296    -2.3007    -0.0925 H       
  31 H31            6.2921    -3.0570    -0.0740 H       
  32 H32            9.6132     1.1550     2.1530 H       
  33 H33           10.1417    -0.5446     2.1392 H       
  34 H34           13.5535     3.6824     2.0083 H       
  35 H35           15.3574     2.0084     2.0910 H       
  36 H36           14.8172    -0.3907     1.9750 H       
  37 H37           12.4722    -1.1179     1.7884 H       
@<TRIPOS>BOND
   1    1    2 1
   2    1    5 1
   3    2    3 2
   4    2   26 1
   5    3    4 1
   6    4    5 2
   7    4    6 1
   8    5   27 1
   9    6    7 1
  10    6   10 2
  11    7    8 1
  12    7   28 1
  13    8    9 ar
  14    8   14 ar
  15    9   10 1
  16    9   11 ar
  17   11   12 ar
  18   11   29 1
  19   12   13 ar
  20   12   15 1
  21   13   14 ar
  22   13   30 1
  23   14   31 1
  24   15   16 2
  25   15   17 2
  26   15   18 1
  27   18   19 1
  28   18   32 1
  29   18   33 1
  30   19   20 ar
  31   19   24 ar
  32   20   21 ar
  33   20   25 1
  34   21   22 ar
  35   21   34 1
  36   22   23 ar
  37   22   35 1
  38   23   24 ar
  39   23   36 1
  40   24   37 1

#	End of record

