#	Name: ASD01948229
#	Creating user name:	WinNT
#	Creation time:	15. 06. 2019 20:14

#	Modifying user name:	WinNT
#	Modification time:	15. 06. 2019 20:14

#	Program:	/corina/corina34_cracker 3.40 0067  02.08.2006

@<TRIPOS>MOLECULE
ASD01948229
  26   27    0    0    0
SMALL
NO_CHARGES


@<TRIPOS>ATOM
   1 C1            -0.4768     0.7317     1.4101 C.ar    
   2 C2             0.0247     0.0541     0.3120 C.ar    
   3 C3            -0.6880     0.0311    -0.8754 C.ar    
   4 C4            -1.9042     0.6862    -0.9663 C.ar    
   5 C5            -2.4092     1.3673     0.1360 C.ar    
   6 C6            -1.6947     1.3834     1.3262 C.ar    
   7 F7            -2.5993     0.6643    -2.1245 F       
   8 C8            -4.7898     0.0048     0.6777 C.ar    
   9 C9            -4.8279     1.3295     0.2647 C.ar    
  10 N10           -3.6372     2.0305     0.0472 N.pl3   
  11 C11           -5.9676    -0.6855     0.8914 C.ar    
  12 C12           -7.1845    -0.0587     0.6945 C.ar    
  13 C13           -7.2277     1.2618     0.2829 C.ar    
  14 C14           -6.0533     1.9583     0.0672 C.ar    
  15 N15           -2.2295     2.1075     2.5013 N.pl3   
  16 F16            0.2210     0.7521     2.5668 F       
  17 F17           -6.0952     3.2476    -0.3343 F       
  18 I18           -8.9667    -1.1106     1.0202 I       
  19 F19           -0.1959    -0.6306    -1.9455 F       
  20 O20           -2.9492     1.5303     3.2965 O.2     
  21 O21           -1.9499     3.2804     2.6730 O.2     
  22 H22            0.9735    -0.4572     0.3813 H       
  23 H23           -3.8402    -0.4874     0.8277 H       
  24 H24           -3.6632     2.9766    -0.1652 H       
  25 H25           -5.9378    -1.7162     1.2124 H       
  26 H26           -8.1796     1.7484     0.1296 H       
@<TRIPOS>BOND
   1    1    2 ar
   2    1   16 1
   3    1    6 ar
   4    2    3 ar
   5    2   22 1
   6    3    4 ar
   7    3   19 1
   8    4    5 ar
   9    4    7 1
  10    5    6 ar
  11    5   10 1
  12    6   15 1
  13    8    9 ar
  14    8   11 ar
  15    8   23 1
  16    9   10 1
  17    9   14 ar
  18   10   24 1
  19   11   12 ar
  20   11   25 1
  21   12   13 ar
  22   12   18 1
  23   13   14 ar
  24   13   26 1
  25   14   17 1
  26   15   20 2
  27   15   21 2

#	End of record

