#	Name: ASD00180018
#	Creating user name:	WinNT
#	Creation time:	15. 06. 2019 18:33

#	Modifying user name:	WinNT
#	Modification time:	15. 06. 2019 18:33

#	Program:	/corina/corina34_cracker 3.40 0067  02.08.2006

@<TRIPOS>MOLECULE
ASD00180018
  35   36    0    0    0
SMALL
NO_CHARGES


@<TRIPOS>ATOM
   1 N1             0.0167     1.1142    -0.1658 N.ar    
   2 C2             0.1779    -0.1863    -0.2826 C.ar    
   3 C3             1.4627    -0.7408    -0.2645 C.ar    
   4 N4             2.5243     0.0433    -0.1293 N.ar    
   5 C5             2.3671     1.3561    -0.0110 C.ar    
   6 C6             1.0772     1.9087    -0.0296 C.ar    
   7 C7             0.8959     3.3687     0.1010 C.2     
   8 N8            -0.3242     3.9078    -0.0369 N.2     
   9 O9             1.8550     4.0833     0.3342 O.2     
  10 C10           -0.5167     4.8995    -0.8923 C.2     
  11 N11            3.4719     2.1773     0.1306 N.pl3   
  12 N12            0.4968     5.2984    -1.7135 N.pl3   
  13 N13           -1.7287     5.5226    -0.9526 N.pl3   
  14 Cl14          -1.2074    -1.2177    -0.4593 Cl      
  15 N15            1.6263    -2.1105    -0.3875 N.pl3   
  16 C16            2.9707    -2.6923    -0.3687 C.3     
  17 C17            2.8726    -4.1886    -0.5184 C.ar    
  18 C18            2.8924    -4.7792    -1.7727 C.ar    
  19 C19            2.8008    -6.1547    -1.8709 C.ar    
  20 N20            2.6953    -6.9026    -0.7900 N.ar    
  21 C21            2.6733    -6.3754     0.4186 C.ar    
  22 C22            2.7663    -5.0079     0.5951 C.ar    
  23 H23            4.3554     1.7891     0.2290 H       
  24 H24            3.3629     3.1412     0.1316 H       
  25 H25            1.3336     4.8079    -1.7245 H       
  26 H26            0.3808     6.0725    -2.2864 H       
  27 H27           -2.4494     5.2390    -0.3687 H       
  28 H28           -1.8698     6.2493    -1.5794 H       
  29 H29            0.8507    -2.6846    -0.4861 H       
  30 H30            3.5555    -2.2823    -1.1920 H       
  31 H31            3.4570    -2.4529     0.5770 H       
  32 H32            2.9779    -4.1720    -2.6617 H       
  33 H33            2.8155    -6.6224    -2.8443 H       
  34 H34            2.5854    -7.0201     1.2806 H       
  35 H35            2.7480    -4.5821     1.5875 H       
@<TRIPOS>BOND
   1    1    2 ar
   2    1    6 ar
   3    2    3 ar
   4    2   14 1
   5    3    4 ar
   6    3   15 1
   7    4    5 ar
   8    5    6 ar
   9    5   11 1
  10    6    7 1
  11    7    8 1
  12    7    9 2
  13    8   10 2
  14   10   12 1
  15   10   13 1
  16   11   23 1
  17   11   24 1
  18   12   25 1
  19   12   26 1
  20   13   27 1
  21   13   28 1
  22   15   16 1
  23   15   29 1
  24   16   17 1
  25   16   30 1
  26   16   31 1
  27   17   18 ar
  28   17   22 ar
  29   18   19 ar
  30   18   32 1
  31   19   20 ar
  32   19   33 1
  33   20   21 ar
  34   21   22 ar
  35   21   34 1
  36   22   35 1

#	End of record

