#	Name: ASD01900378
#	Creating user name:	WinNT
#	Creation time:	15. 06. 2019 19:51

#	Modifying user name:	WinNT
#	Modification time:	15. 06. 2019 19:51

#	Program:	/corina/corina34_cracker 3.40 0067  02.08.2006

@<TRIPOS>MOLECULE
ASD01900378
  30   32    0    0    0
SMALL
NO_CHARGES


@<TRIPOS>ATOM
   1 C1            -0.0731     1.1714     0.8835 C.ar    
   2 C2            -0.0233    -0.1017     0.3308 C.ar    
   3 N3             1.1181    -0.7296     0.1620 N.ar    
   4 C4             2.2752    -0.1733     0.5127 C.ar    
   5 C5             2.3002     1.1156     1.0788 C.ar    
   6 C6             1.0977     1.7964     1.2655 C.ar    
   7 C7             3.6701    -0.6157     0.4486 C.2     
   8 N8             4.4141     0.3414     0.9362 N.2     
   9 N9             3.6123     1.4168     1.3323 N.pl3   
  10 N10            4.1242    -1.8424    -0.0458 N.pl3   
  11 C11            5.4963    -2.0884    -0.1525 C.ar    
  12 C12            5.9792    -3.3863    -0.0544 C.ar    
  13 C13            6.3773    -1.0347    -0.3624 C.ar    
  14 C14            7.7333    -1.2775    -0.4688 C.ar    
  15 C15            8.2171    -2.5696    -0.3665 C.ar    
  16 C16            7.3396    -3.6270    -0.1609 C.ar    
  17 O17            7.8158    -4.8964    -0.0601 O.3     
  18 C18            6.8565    -5.9343     0.1511 C.3     
  19 F19            9.5434    -2.8040    -0.4718 F       
  20 H20           -1.0218     1.6717     1.0099 H       
  21 H21           -0.9420    -0.5856     0.0339 H       
  22 H22            1.0823     2.7864     1.6968 H       
  23 H23            3.9340     2.2442     1.7233 H       
  24 H24            3.4872    -2.5226    -0.3148 H       
  25 H25            5.2956    -4.2071     0.1051 H       
  26 H26            6.0019    -0.0253    -0.4429 H       
  27 H27            8.4166    -0.4573    -0.6323 H       
  28 H28            6.1508    -5.9513    -0.6795 H       
  29 H29            7.3680    -6.8948     0.2129 H       
  30 H30            6.3188    -5.7485     1.0809 H       
@<TRIPOS>BOND
   1    1    2 ar
   2    1    6 ar
   3    1   20 1
   4    2    3 ar
   5    2   21 1
   6    3    4 ar
   7    4    5 ar
   8    4    7 1
   9    5    6 ar
  10    5    9 1
  11    6   22 1
  12    7    8 2
  13    7   10 1
  14    8    9 1
  15    9   23 1
  16   10   11 1
  17   10   24 1
  18   11   12 ar
  19   11   13 ar
  20   12   16 ar
  21   12   25 1
  22   13   14 ar
  23   13   26 1
  24   14   15 ar
  25   14   27 1
  26   15   16 ar
  27   15   19 1
  28   16   17 1
  29   17   18 1
  30   18   28 1
  31   18   29 1
  32   18   30 1

#	End of record

