#	Name: ASD09740059
#	Creating user name:	WinNT
#	Creation time:	15. 06. 2019 21:22

#	Modifying user name:	WinNT
#	Modification time:	15. 06. 2019 21:22

#	Program:	/corina/corina34_cracker 3.40 0067  02.08.2006

@<TRIPOS>MOLECULE
ASD09740059
  33   35    0    0    0
SMALL
NO_CHARGES


@<TRIPOS>ATOM
   1 N1            -0.0144     1.2085     0.0087 N.2     
   2 O2             0.0021    -0.0041     0.0020 O.3     
   3 C3             1.2057     1.6798    -0.0004 C.2     
   4 N4             2.0455     0.6238    -0.0141 N.2     
   5 C5             1.2699    -0.4439    -0.0124 C.2     
   6 C6             1.7129    -1.8544    -0.0238 C.ar    
   7 C7             1.5950     3.1130     0.0035 C.ar    
   8 C8             0.7713    -2.8839    -0.0204 C.ar    
   9 C9             3.0743    -2.1607    -0.0438 C.ar    
  10 C10            3.4843    -3.4784    -0.0549 C.ar    
  11 C11            2.5503    -4.4975    -0.0467 C.ar    
  12 C12            1.1935    -4.2024    -0.0316 C.ar    
  13 C13            0.6264     4.1194     0.0187 C.ar    
  14 C14            1.0316     5.4391     0.0219 C.ar    
  15 N15            2.3123     5.7539     0.0108 N.ar    
  16 C16            3.2578     4.8345    -0.0037 C.ar    
  17 C17            2.9397     3.4912    -0.0020 C.ar    
  18 O18            0.2797    -5.2083    -0.0231 O.3     
  19 C19           -0.3825    -7.5325    -0.0192 C.3     
  20 C20            0.7858    -6.5447    -0.0304 C.3     
  21 H21           -0.2837    -2.6530    -0.0087 H       
  22 H22            3.8066    -1.3669    -0.0510 H       
  23 H23            4.5382    -3.7142    -0.0704 H       
  24 H24            2.8769    -5.5269    -0.0561 H       
  25 H25           -0.4241     3.8688     0.0275 H       
  26 H26            0.2900     6.2241     0.0332 H       
  27 H27            4.2946     5.1366    -0.0127 H       
  28 H28            3.7191     2.7436    -0.0135 H       
  29 H29            0.0035    -8.5519    -0.0248 H       
  30 H30           -0.9821    -7.3760     0.8775 H       
  31 H31           -1.0013    -7.3735    -0.9023 H       
  32 H32            1.3853    -6.7012    -0.9272 H       
  33 H33            1.4045    -6.7037     0.8527 H       
@<TRIPOS>BOND
   1    1    2 1
   2    1    3 2
   3    2    5 1
   4    3    4 1
   5    3    7 1
   6    4    5 2
   7    5    6 1
   8    6    8 ar
   9    6    9 ar
  10    7   13 ar
  11    7   17 ar
  12    8   12 ar
  13    8   21 1
  14    9   10 ar
  15    9   22 1
  16   10   11 ar
  17   10   23 1
  18   11   12 ar
  19   11   24 1
  20   12   18 1
  21   13   14 ar
  22   13   25 1
  23   14   15 ar
  24   14   26 1
  25   15   16 ar
  26   16   17 ar
  27   16   27 1
  28   17   28 1
  29   18   20 1
  30   19   20 1
  31   19   29 1
  32   19   30 1
  33   19   31 1
  34   20   32 1
  35   20   33 1

#	End of record

