#	Name: ASD01884876
#	Creating user name:	WinNT
#	Creation time:	15. 06. 2019 19:49

#	Modifying user name:	WinNT
#	Modification time:	15. 06. 2019 19:49

#	Program:	/corina/corina34_cracker 3.40 0067  02.08.2006

@<TRIPOS>MOLECULE
ASD01884876
  35   38    0    0    0
SMALL
NO_CHARGES


@<TRIPOS>ATOM
   1 C1            -0.0164     1.3612     0.0095 C.ar    
   2 C2             0.0021    -0.0041     0.0020 C.ar    
   3 C3            -1.1923    -0.7345     0.0095 C.ar    
   4 C4            -2.4134    -0.0727     0.0247 C.ar    
   5 C5            -2.4368     1.3220     0.0324 C.ar    
   6 C6            -1.2300     2.0457     0.0306 C.ar    
   7 C7            -3.5087     2.3210     0.0480 C.2     
   8 C8            -2.9201     3.5273     0.0488 C.2     
   9 N9            -1.5597     3.3830     0.0394 N.pl3   
  10 C10           -1.1537    -2.2156     0.0007 C.2     
  11 C11           -0.6207    -2.9054     1.0734 C.2     
  12 C12           -1.6684    -2.9376    -1.1054 C.2     
  13 C13           -1.6343    -4.2819    -1.1134 C.2     
  14 N14           -1.1045    -4.9757    -0.0597 N.pl3   
  15 C15           -0.5981    -4.3120     1.0368 C.2     
  16 Cl16           0.0117    -2.0494     2.4449 Cl      
  17 C17           -0.9397    -6.3029     0.2017 C.2     
  18 N18           -0.3669    -6.4033     1.3779 N.2     
  19 N19           -0.1629    -5.2351     1.8769 N.2     
  20 O20           -1.3018    -7.3318    -0.6058 O.3     
  21 H21           -0.9220     4.1139     0.0380 H       
  22 C22           -1.0343    -8.6532    -0.1324 C.3     
  23 C23           -1.5084    -9.6725    -1.1702 C.3     
  24 Cl24           1.4766     2.2469     0.0000 Cl      
  25 H25            0.9476    -0.5258    -0.0102 H       
  26 H26           -3.3366    -0.6330     0.0302 H       
  27 H27           -4.5705     2.1240     0.0568 H       
  28 H28           -3.4432     4.4722     0.0589 H       
  29 H29           -2.0901    -2.4056    -1.9454 H       
  30 H30           -2.0302    -4.8205    -1.9617 H       
  31 H31            0.0371    -8.7712     0.0297 H       
  32 H32           -1.5639    -8.8171     0.8061 H       
  33 H33           -2.5798    -9.5546    -1.3323 H       
  34 H34           -0.9788    -9.5087    -2.1087 H       
  35 H35           -1.3044   -10.6805    -0.8091 H       
@<TRIPOS>BOND
   1    1    2 ar
   2    1   24 1
   3    1    6 ar
   4    2    3 ar
   5    2   25 1
   6    3    4 ar
   7    3   10 1
   8    4    5 ar
   9    4   26 1
  10    5    6 ar
  11    5    7 1
  12    6    9 1
  13    7    8 2
  14    7   27 1
  15    8    9 1
  16    8   28 1
  17    9   21 1
  18   10   11 2
  19   10   12 1
  20   11   16 1
  21   11   15 1
  22   12   13 2
  23   12   29 1
  24   13   14 1
  25   13   30 1
  26   14   15 1
  27   14   17 1
  28   15   19 2
  29   17   18 2
  30   17   20 1
  31   18   19 1
  32   20   22 1
  33   22   23 1
  34   22   31 1
  35   22   32 1
  36   23   33 1
  37   23   34 1
  38   23   35 1

#	End of record

