#	Name: ASD07930498
#	Creating user name:	WinNT
#	Creation time:	15. 06. 2019 21:12

#	Modifying user name:	WinNT
#	Modification time:	15. 06. 2019 21:12

#	Program:	/corina/corina34_cracker 3.40 0067  02.08.2006

@<TRIPOS>MOLECULE
ASD07930498
  57   60    0    0    0
SMALL
NO_CHARGES


@<TRIPOS>ATOM
   1 C1            -0.0505     1.4607     0.0587 C.3     
   2 N2             0.7846    -0.4056    -2.1163 N.2     
   3 N3            -0.8993    -1.7803    -1.2585 N.pl3   
   4 C4            -0.9229    -2.8257    -0.2300 C.3     
   5 C5            -1.2404    -2.1900     1.1305 C.3     
   6 S6            -0.0070    -0.8911     1.4558 S.o2    
   7 N7            -0.0275    -0.0041     0.0453 N.am    
   8 C8            -0.0223    -0.7214    -1.1426 C.2     
   9 C9             0.4433    -3.5115    -0.1672 C.3     
  10 C10           -1.9822    -3.8422    -0.5700 C.ar    
  11 C11           -2.8120    -3.6377    -1.6546 C.ar    
  12 C12           -3.7878    -4.5751    -1.9677 C.ar    
  13 C13           -3.9267    -5.7164    -1.1890 C.ar    
  14 C14           -3.0945    -5.9171    -0.1050 C.ar    
  15 C15           -2.1190    -4.9838     0.2022 C.ar    
  16 O16           -0.4734     0.0094     2.4512 O.2     
  17 O17            1.3018    -1.4414     1.5130 O.2     
  18 F18           -1.3061    -5.1820     1.2630 F       
  19 N19           -4.6302    -4.3696    -3.0662 N.am    
  20 C20           -5.0474    -5.4194    -3.8012 C.2     
  21 O21           -4.6157    -6.5324    -3.5712 O.2     
  22 C22           -6.0299    -5.2176    -4.8868 C.ar    
  23 N23           -6.4970    -3.9980    -5.1319 N.ar    
  24 C24           -6.4523    -6.3087    -5.6467 C.ar    
  25 C25           -7.3713    -6.1086    -6.6600 C.ar    
  26 C26           -7.8421    -4.8155    -6.8832 C.ar    
  27 C27           -7.3702    -3.7723    -6.0862 C.ar    
  28 N28           -8.7668    -4.5675    -7.8920 N.3     
  29 C29           -9.7084    -5.6932    -8.0340 C.3     
  30 C30          -11.1317    -5.1240    -7.8557 C.3     
  31 C31          -10.9506    -3.6195    -8.1881 C.3     
  32 C32           -9.5404    -3.3392    -7.6115 C.3     
  33 H33            0.9714     1.8401     0.0572 H       
  34 H34           -0.5742     1.8239    -0.8255 H       
  35 H35           -0.5656     1.8078     0.9543 H       
  36 H36            1.3949     0.3418    -2.0174 H       
  37 H37           -1.4964    -1.8353    -2.0209 H       
  38 H38           -2.2382    -1.7517     1.1075 H       
  39 H39           -1.1897    -2.9487     1.9114 H       
  40 H40            1.2082    -2.7756     0.0807 H       
  41 H41            0.4251    -4.2883     0.5973 H       
  42 H42            0.6699    -3.9593    -1.1348 H       
  43 H43           -2.7026    -2.7492    -2.2587 H       
  44 H44           -4.6851    -6.4464    -1.4306 H       
  45 H45           -3.2022    -6.8046     0.5009 H       
  46 H46           -4.9137    -3.4715    -3.2985 H       
  47 H47           -6.0660    -7.2971    -5.4461 H       
  48 H48           -7.7160    -6.9344    -7.2646 H       
  49 H49           -7.7307    -2.7680    -6.2531 H       
  50 H50           -9.6082    -6.1378    -9.0241 H       
  51 H51           -9.5097    -6.4419    -7.2671 H       
  52 H52          -11.8245    -5.5924    -8.5547 H       
  53 H53          -11.4726    -5.2534    -6.8285 H       
  54 H54          -10.9724    -3.4521    -9.2649 H       
  55 H55          -11.7053    -3.0149    -7.6851 H       
  56 H56           -9.5976    -3.1639    -6.5372 H       
  57 H57           -9.0886    -2.4834    -8.1130 H       
@<TRIPOS>BOND
   1    1    7 1
   2    1   33 1
   3    1   34 1
   4    1   35 1
   5    2    8 2
   6    2   36 1
   7    3    4 1
   8    3    8 1
   9    3   37 1
  10    4    5 1
  11    4    9 1
  12    4   10 1
  13    5    6 1
  14    5   38 1
  15    5   39 1
  16    6    7 am
  17    6   16 2
  18    6   17 2
  19    7    8 1
  20    9   40 1
  21    9   41 1
  22    9   42 1
  23   10   11 ar
  24   10   15 ar
  25   11   12 ar
  26   11   43 1
  27   12   13 ar
  28   12   19 1
  29   13   14 ar
  30   13   44 1
  31   14   15 ar
  32   14   45 1
  33   15   18 1
  34   19   20 am
  35   19   46 1
  36   20   21 2
  37   20   22 1
  38   22   23 ar
  39   22   24 ar
  40   23   27 ar
  41   24   25 ar
  42   24   47 1
  43   25   26 ar
  44   25   48 1
  45   26   27 ar
  46   26   28 1
  47   27   49 1
  48   28   29 1
  49   28   32 1
  50   29   30 1
  51   29   50 1
  52   29   51 1
  53   30   31 1
  54   30   52 1
  55   30   53 1
  56   31   32 1
  57   31   54 1
  58   31   55 1
  59   32   56 1
  60   32   57 1

#	End of record

