#	Name: ASD01230216
#	Creating user name:	WinNT
#	Creation time:	15. 06. 2019 19:12

#	Modifying user name:	WinNT
#	Modification time:	15. 06. 2019 19:12

#	Program:	/corina/corina34_cracker 3.40 0067  02.08.2006

@<TRIPOS>MOLECULE
ASD01230216
  43   46    0    0    0
SMALL
NO_CHARGES


@<TRIPOS>ATOM
   1 S1             0.0743     1.7732     1.3201 S.o2    
   2 N2            -0.1061     0.2572     0.6822 N.am    
   3 C3             0.6444    -0.1835    -0.2985 C.2     
   4 N4             1.6435     0.5188    -0.9095 N.pl3   
   5 C5             1.9754     1.9109    -0.5953 C.3     
   6 C6             1.7988     2.1812     0.9019 C.3     
   7 C7             0.3618    -1.5590    -0.7607 C.2     
   8 C8             1.1379    -2.1042    -1.7603 C.2     
   9 C9             2.1757    -1.3374    -2.3097 C.2     
  10 C10            2.4006    -0.0810    -1.8862 C.2     
  11 C11           -0.7408    -2.3411    -0.1569 C.ar    
  12 C12           -0.4605    -3.4973     0.5724 C.ar    
  13 C13           -1.4898    -4.2228     1.1337 C.ar    
  14 C14           -2.8042    -3.8042     0.9740 C.ar    
  15 C15           -3.0870    -2.6544     0.2486 C.ar    
  16 C16           -2.0624    -1.9207    -0.3107 C.ar    
  17 O17           -3.8162    -4.5217     1.5286 O.3     
  18 C18           -4.5136    -6.8066    -1.2155 C.ar    
  19 C19           -3.8957    -5.8143    -0.4822 C.ar    
  20 C20           -4.3961    -5.4916     0.7768 C.ar    
  21 C21           -5.5068    -6.1901     1.2451 C.ar    
  22 C22           -6.0671    -7.1690     0.4509 C.ar    
  23 N23           -5.5642    -7.4459    -0.7374 N.ar    
  24 C24           -3.9853    -7.1606    -2.5817 C.3     
  25 F25           -3.0224    -8.1684    -2.4626 F       
  26 F26           -5.0371    -7.6132    -3.3855 F       
  27 F27           -3.4060    -6.0288    -3.1654 F       
  28 Cl28           3.1807    -2.0175    -3.5511 Cl      
  29 O29           -0.8291     2.5824     0.5797 O.2     
  30 O30           -0.0755     1.5917     2.7214 O.2     
  31 H31            3.0103     2.1060    -0.8763 H       
  32 H32            1.3192     2.5732    -1.1600 H       
  33 H33            1.9941     3.2321     1.1152 H       
  34 H34            2.4790     1.5520     1.4760 H       
  35 H35            0.9501    -3.1068    -2.1151 H       
  36 H36            3.2095     0.4789    -2.3317 H       
  37 H37            0.5615    -3.8236     0.6967 H       
  38 H38           -1.2736    -5.1179     1.6979 H       
  39 H39           -4.1105    -2.3322     0.1258 H       
  40 H40           -2.2828    -1.0239    -0.8707 H       
  41 H41           -3.0359    -5.2951    -0.8791 H       
  42 H42           -5.9233    -5.9684     2.2166 H       
  43 H43           -6.9284    -7.7154     0.8060 H       
@<TRIPOS>BOND
   1    1    2 am
   2    1    6 1
   3    1   29 2
   4    1   30 2
   5    2    3 2
   6    3    4 1
   7    3    7 1
   8    4    5 1
   9    4   10 1
  10    5    6 1
  11    5   31 1
  12    5   32 1
  13    6   33 1
  14    6   34 1
  15    7    8 2
  16    7   11 1
  17    8    9 1
  18    8   35 1
  19    9   10 2
  20    9   28 1
  21   10   36 1
  22   11   12 ar
  23   11   16 ar
  24   12   13 ar
  25   12   37 1
  26   13   14 ar
  27   13   38 1
  28   14   15 ar
  29   14   17 1
  30   15   16 ar
  31   15   39 1
  32   16   40 1
  33   17   20 1
  34   18   19 ar
  35   18   23 ar
  36   18   24 1
  37   19   20 ar
  38   19   41 1
  39   20   21 ar
  40   21   22 ar
  41   21   42 1
  42   22   23 ar
  43   22   43 1
  44   24   25 1
  45   24   26 1
  46   24   27 1

#	End of record

