#	Name: ASD01917228
#	Creating user name:	WinNT
#	Creation time:	15. 06. 2019 20:08

#	Modifying user name:	WinNT
#	Modification time:	15. 06. 2019 20:08

#	Program:	/corina/corina34_cracker 3.40 0067  02.08.2006

@<TRIPOS>MOLECULE
ASD01917228
  45   48    0    0    0
SMALL
NO_CHARGES


@<TRIPOS>ATOM
   1 C1             0.0385     1.0514     0.4570 C.ar    
   2 C2             0.1031    -0.2992     0.7392 C.ar    
   3 C3             1.3309    -0.9253     0.8517 C.ar    
   4 C4             2.4966    -0.2018     0.6820 C.ar    
   5 C5             2.4374     1.1495     0.4000 C.ar    
   6 C6             1.2070     1.7799     0.2863 C.ar    
   7 C7             3.7085     1.9379     0.2161 C.3     
   8 O8             4.8337     1.0726     0.3806 O.3     
   9 C9             6.0667     1.6305     0.2456 C.2     
  10 N10            6.3105     2.8968    -0.0227 N.2     
  11 N11            7.6857     3.0794    -0.0887 N.pl3   
  12 C12            8.2816     1.8647     0.1669 C.2     
  13 C13            7.2876     0.9541     0.3748 C.2     
  14 C14            8.4722     4.2794    -0.3796 C.3     
  15 C15            9.8198     4.1844     0.3357 C.3     
  16 N16           10.4572     2.8842     0.1606 N.am    
  17 C17            9.7475     1.7310     0.1977 C.2     
  18 O18           10.2915     0.6444     0.2537 O.2     
  19 C19           11.8392     2.8266    -0.0518 C.ar    
  20 C20           12.7144     3.1947     0.9617 C.ar    
  21 C21           14.0779     3.1371     0.7499 C.ar    
  22 C22           14.5725     2.7127    -0.4718 C.ar    
  23 C23           13.7016     2.3455    -1.4839 C.ar    
  24 C24           12.3374     2.3957    -1.2743 C.ar    
  25 F25           15.9067     2.6571    -0.6769 F       
  26 O26            1.1462     3.1088     0.0085 O.3     
  27 C27           -0.1547     3.6912    -0.0941 C.3     
  28 H28           -0.9207     1.5390     0.3649 H       
  29 H29           -0.8062    -0.8666     0.8726 H       
  30 H30            1.3793    -1.9814     1.0727 H       
  31 H31            3.4543    -0.6931     0.7703 H       
  32 H32            3.7261     2.3707    -0.7841 H       
  33 H33            3.7519     2.7354     0.9579 H       
  34 H34            7.4172    -0.0957     0.5927 H       
  35 H35            8.6353     4.3560    -1.4546 H       
  36 H36            7.9351     5.1606    -0.0286 H       
  37 H37           10.4817     4.9568    -0.0560 H       
  38 H38            9.6667     4.3612     1.4003 H       
  39 H39           12.3290     3.5262     1.9146 H       
  40 H40           14.7589     3.4237     1.5377 H       
  41 H41           14.0895     2.0151    -2.4361 H       
  42 H42           11.6585     2.1093    -2.0639 H       
  43 H43           -0.7111     3.1994    -0.8921 H       
  44 H44           -0.6850     3.5647     0.8498 H       
  45 H45           -0.0605     4.7537    -0.3184 H       
@<TRIPOS>BOND
   1    1    2 ar
   2    1    6 ar
   3    1   28 1
   4    2    3 ar
   5    2   29 1
   6    3    4 ar
   7    3   30 1
   8    4    5 ar
   9    4   31 1
  10    5    6 ar
  11    5    7 1
  12    6   26 1
  13    7    8 1
  14    7   32 1
  15    7   33 1
  16    8    9 1
  17    9   10 2
  18    9   13 1
  19   10   11 1
  20   11   12 1
  21   11   14 1
  22   12   13 2
  23   12   17 1
  24   13   34 1
  25   14   15 1
  26   14   35 1
  27   14   36 1
  28   15   16 1
  29   15   37 1
  30   15   38 1
  31   16   17 am
  32   16   19 1
  33   17   18 2
  34   19   20 ar
  35   19   24 ar
  36   20   21 ar
  37   20   39 1
  38   21   22 ar
  39   21   40 1
  40   22   23 ar
  41   22   25 1
  42   23   24 ar
  43   23   41 1
  44   24   42 1
  45   26   27 1
  46   27   43 1
  47   27   44 1
  48   27   45 1

#	End of record

