#	Name: ASD02408028
#	Creating user name:	WinNT
#	Creation time:	15. 06. 2019 20:21

#	Modifying user name:	WinNT
#	Modification time:	15. 06. 2019 20:21

#	Program:	/corina/corina34_cracker 3.40 0067  02.08.2006

@<TRIPOS>MOLECULE
ASD02408028
  42   44    0    0    0
SMALL
NO_CHARGES


@<TRIPOS>ATOM
   1 C1             0.5078     0.6597    -0.0713 C.ar    
   2 C2             0.7637    -0.6807    -0.2897 C.ar    
   3 C3             1.6431     1.6506    -0.0557 C.3     
   4 C4             1.8677     2.1793    -1.4489 C.2     
   5 N5             2.8449     3.0840    -1.6524 N.am    
   6 N6             1.1122     1.7415    -2.4192 N.2     
   7 C7             1.2664     2.1753    -3.6768 C.2     
   8 C8             2.2638     3.1233    -3.9591 C.2     
   9 C9             3.0739     3.5783    -2.8872 C.2     
  10 N10            0.4585     1.6982    -4.6796 N.pl3   
  11 O11            3.9540     4.4002    -3.0762 O.2     
  12 C12            1.0023     1.4140    -6.0163 C.3     
  13 C13           -0.2789    -1.5903    -0.3045 C.ar    
  14 C14           -1.5768    -1.1573    -0.1006 C.ar    
  15 C15           -1.8315     0.1837     0.1177 C.ar    
  16 C16           -0.7902     1.0926     0.1271 C.ar    
  17 Cl17           0.0417    -3.2742    -0.5793 Cl      
  18 C18            0.5870    -0.0049    -6.4192 C.3     
  19 N19           -0.8712    -0.1371    -6.3008 N.3     
  20 C20           -1.3110     0.0371    -4.9101 C.3     
  21 C21           -0.9722     1.4520    -4.4436 C.3     
  22 C22           -1.3286    -1.4247    -6.8402 C.3     
  23 C23            2.4604     3.6121    -5.2907 C.1     
  24 N24            2.6164     3.9998    -6.3470 N.1     
  25 H25            1.7772    -1.0181    -0.4491 H       
  26 H26            1.3953     2.4767     0.6109 H       
  27 H27            2.5498     1.1588     0.2968 H       
  28 H28            3.3877     3.3825    -0.9060 H       
  29 H29            0.6025     2.1303    -6.7341 H       
  30 H30            2.0898     1.4842    -5.9917 H       
  31 H31           -2.3910    -1.8668    -0.1124 H       
  32 H32           -2.8448     0.5219     0.2768 H       
  33 H33           -0.9896     2.1402     0.2981 H       
  34 H34            0.8868    -0.1927    -7.4502 H       
  35 H35            1.0722    -0.7264    -5.7618 H       
  36 H36           -2.3877    -0.1202    -4.8466 H       
  37 H37           -0.7994    -0.6849    -4.2737 H       
  38 H38           -1.1916     1.5494    -3.3803 H       
  39 H39           -1.5602     2.1747    -5.0093 H       
  40 H40           -0.8580    -2.2378    -6.2876 H       
  41 H41           -2.4116    -1.4964    -6.7401 H       
  42 H42           -1.0556    -1.4951    -7.8931 H       
@<TRIPOS>BOND
   1    1    2 ar
   2    1    3 1
   3    1   16 ar
   4    2   13 ar
   5    2   25 1
   6    3    4 1
   7    3   26 1
   8    3   27 1
   9    4    5 1
  10    4    6 2
  11    5    9 am
  12    5   28 1
  13    6    7 1
  14    7    8 2
  15    7   10 1
  16    8    9 1
  17    8   23 1
  18    9   11 2
  19   10   12 1
  20   10   21 1
  21   12   18 1
  22   12   29 1
  23   12   30 1
  24   13   14 ar
  25   13   17 1
  26   14   15 ar
  27   14   31 1
  28   15   16 ar
  29   15   32 1
  30   16   33 1
  31   18   19 1
  32   18   34 1
  33   18   35 1
  34   19   20 1
  35   19   22 1
  36   20   21 1
  37   20   36 1
  38   20   37 1
  39   21   38 1
  40   21   39 1
  41   22   40 1
  42   22   41 1
  43   22   42 1
  44   23   24 3

#	End of record

