#	Name: ASD01911547
#	Creating user name:	WinNT
#	Creation time:	15. 06. 2019 19:58

#	Modifying user name:	WinNT
#	Modification time:	15. 06. 2019 19:58

#	Program:	/corina/corina34_cracker 3.40 0067  02.08.2006

@<TRIPOS>MOLECULE
ASD01911547
  41   43    0    0    0
SMALL
NO_CHARGES


@<TRIPOS>ATOM
   1 C1            -0.0144     1.2130     0.0087 C.2     
   2 O2            -0.0266     0.0740    -0.4204 O.2     
   3 S3             1.3244     3.7546    -0.1823 S.3     
   4 C4             3.0823     3.6506    -0.1516 C.2     
   5 N5             3.4425     2.3957    -0.0442 N.2     
   6 C6             2.4941     1.5044     0.0169 C.2     
   7 C7             1.2198     2.0009    -0.0399 C.2     
   8 C8             3.9785     4.7646    -0.2316 C.1     
   9 C9             4.7133     5.6779    -0.2972 C.1     
  10 C10            5.6095     6.7919    -0.3772 C.ar    
  11 C11            6.9919     6.5854    -0.3428 C.ar    
  12 C12            7.8485     7.6633    -0.4203 C.ar    
  13 C13            7.3431     8.9468    -0.5318 C.ar    
  14 C14            5.9759     9.1593    -0.5660 C.ar    
  15 C15            5.1066     8.0911    -0.4958 C.ar    
  16 N16           -1.1377     1.7512     0.5235 N.am    
  17 C17           -1.1072     3.0693     1.1719 C.3     
  18 C18           -1.7157     2.9442     2.5722 C.3     
  19 C19           -3.1129     2.3292     2.4638 C.3     
  20 C20           -3.0100     0.9289     1.8550 C.3     
  21 C21           -2.4172     1.0337     0.4416 C.3     
  22 C22           -3.7377     2.2346     3.8572 C.3     
  23 O23           -5.0843     1.7697     3.7449 O.3     
  24 H24            2.6991     0.4478     0.1057 H       
  25 H25            7.3878     5.5844    -0.2555 H       
  26 H26            8.9166     7.5054    -0.3935 H       
  27 H27            8.0190     9.7870    -0.5921 H       
  28 H28            5.5890    10.1639    -0.6524 H       
  29 H29            4.0401     8.2581    -0.5274 H       
  30 H30           -0.0761     3.4138     1.2510 H       
  31 H31           -1.6878     3.7796     0.5833 H       
  32 H32           -1.0834     2.3044     3.1878 H       
  33 H33           -1.7873     3.9320     3.0273 H       
  34 H34           -3.7375     2.9567     1.8279 H       
  35 H35           -2.3655     0.3081     2.4774 H       
  36 H36           -4.0028     0.4824     1.7997 H       
  37 H37           -3.1025     1.5813    -0.2054 H       
  38 H38           -2.2508     0.0346     0.0387 H       
  39 H39           -3.1624     1.5378     4.4668 H       
  40 H40           -3.7310     3.2186     4.3260 H       
  41 H41           -5.5432     1.6853     4.5919 H       
@<TRIPOS>BOND
   1    1    2 2
   2    1    7 1
   3    1   16 am
   4    3    4 1
   5    3    7 1
   6    4    5 2
   7    4    8 1
   8    5    6 1
   9    6    7 2
  10    6   24 1
  11    8    9 3
  12    9   10 1
  13   10   11 ar
  14   10   15 ar
  15   11   12 ar
  16   11   25 1
  17   12   13 ar
  18   12   26 1
  19   13   14 ar
  20   13   27 1
  21   14   15 ar
  22   14   28 1
  23   15   29 1
  24   16   17 1
  25   16   21 1
  26   17   18 1
  27   17   30 1
  28   17   31 1
  29   18   19 1
  30   18   32 1
  31   18   33 1
  32   19   20 1
  33   19   22 1
  34   19   34 1
  35   20   21 1
  36   20   35 1
  37   20   36 1
  38   21   37 1
  39   21   38 1
  40   22   23 1
  41   22   39 1
  42   22   40 1
  43   23   41 1

#	End of record

