#	Name: ASD01813121
#	Creating user name:	WinNT
#	Creation time:	15. 06. 2019 19:29

#	Modifying user name:	WinNT
#	Modification time:	15. 06. 2019 19:29

#	Program:	/corina/corina34_cracker 3.40 0067  02.08.2006

@<TRIPOS>MOLECULE
ASD01813121
  53   56    0    0    0
SMALL
NO_CHARGES


@<TRIPOS>ATOM
   1 C1             0.0325     1.3647    -0.0178 C.2     
   2 C2             0.0696     0.0006    -0.0355 C.2     
   3 C3             1.3160    -0.6523    -0.0596 C.2     
   4 C4             2.4993     0.1141    -0.0649 C.2     
   5 N5             2.4370     1.4608    -0.0467 N.am    
   6 C6             3.5933     2.1832    -0.0518 C.2     
   7 C7             3.5656     3.5350    -0.0340 C.2     
   8 C8             2.3405     4.2152    -0.0099 C.2     
   9 C9             1.1770     3.5029    -0.0046 C.2     
  10 C10            1.2267     2.0991    -0.0237 C.2     
  11 C11            1.3833    -2.1152    -0.0784 C.2     
  12 O12            0.3590    -2.7713    -0.0733 O.2     
  13 O13            2.5812    -2.7351    -0.1015 O.3     
  14 O14            3.5836    -0.4434    -0.0857 O.2     
  15 C15           -1.2928     2.0819     0.0017 C.3     
  16 N16           -1.7917     2.2264    -1.3724 N.3     
  17 C17           -3.1803     2.7039    -1.3806 C.3     
  18 C18           -3.7128     2.7035    -2.8153 C.3     
  19 C19           -2.8356     3.6128    -3.6804 C.3     
  20 C20           -1.3865     3.1224    -3.6159 C.3     
  21 C21           -0.9214     3.1106    -2.1580 C.3     
  22 C22           -3.3189     3.5697    -5.1071 C.ar    
  23 N23           -4.2994     2.7560    -5.4400 N.ar    
  24 C24           -4.7556     2.6838    -6.6757 C.ar    
  25 C25           -4.2188     3.4663    -7.6817 C.ar    
  26 C26           -3.1860     4.3383    -7.3837 C.ar    
  27 C27           -2.7275     4.3965    -6.0630 C.ar    
  28 C28           -1.6275     5.3103    -5.6890 C.2     
  29 C29           -0.9972     6.0067    -6.6246 C.2     
  30 C30           -2.9106     4.9936    -3.1758 C.1     
  31 N31           -2.9684     6.0592    -2.7863 N.1     
  32 H32           -0.8467    -0.5711    -0.0307 H       
  33 H33            4.5431     1.6694    -0.0699 H       
  34 H34            4.4906     4.0924    -0.0380 H       
  35 H35            2.3177     5.2948     0.0047 H       
  36 H36            0.2258     4.0139     0.0143 H       
  37 H37            2.5750    -3.7020    -0.1133 H       
  38 H38           -2.0084     1.5071     0.5895 H       
  39 H39           -1.1655     3.0683     0.4477 H       
  40 H40           -3.7942     2.0462    -0.7652 H       
  41 H41           -3.2185     3.7167    -0.9793 H       
  42 H42           -3.6879     1.6888    -3.2125 H       
  43 H43           -4.7383     3.0728    -2.8229 H       
  44 H44           -1.3250     2.1142    -4.0257 H       
  45 H45           -0.7500     3.7909    -4.1956 H       
  46 H46           -0.9702     4.1215    -1.7531 H       
  47 H47            0.1053     2.7484    -2.1072 H       
  48 H48           -5.5613     2.0023    -6.9055 H       
  49 H49           -4.6011     3.3974    -8.6894 H       
  50 H50           -2.7480     4.9606    -8.1500 H       
  51 H51           -1.3372     5.4107    -4.6536 H       
  52 H52           -0.1935     6.6743    -6.3513 H       
  53 H53           -1.2874     5.9063    -7.6600 H       
@<TRIPOS>BOND
   1    1    2 1
   2    1   10 2
   3    1   15 1
   4    2    3 2
   5    2   32 1
   6    3    4 1
   7    3   11 1
   8    4    5 am
   9    4   14 2
  10    5    6 1
  11    5   10 1
  12    6    7 2
  13    6   33 1
  14    7    8 1
  15    7   34 1
  16    8    9 2
  17    8   35 1
  18    9   10 1
  19    9   36 1
  20   11   12 2
  21   11   13 1
  22   13   37 1
  23   15   16 1
  24   15   38 1
  25   15   39 1
  26   16   17 1
  27   16   21 1
  28   17   18 1
  29   17   40 1
  30   17   41 1
  31   18   19 1
  32   18   42 1
  33   18   43 1
  34   19   20 1
  35   19   22 1
  36   19   30 1
  37   20   21 1
  38   20   44 1
  39   20   45 1
  40   21   46 1
  41   21   47 1
  42   22   23 ar
  43   22   27 ar
  44   23   24 ar
  45   24   25 ar
  46   24   48 1
  47   25   26 ar
  48   25   49 1
  49   26   27 ar
  50   26   50 1
  51   27   28 1
  52   28   29 2
  53   28   51 1
  54   29   52 1
  55   29   53 1
  56   30   31 3

#	End of record

