#	Name: ASD06350032
#	Creating user name:	WinNT
#	Creation time:	15. 06. 2019 21:06

#	Modifying user name:	WinNT
#	Modification time:	15. 06. 2019 21:06

#	Program:	/corina/corina34_cracker 3.40 0067  02.08.2006

@<TRIPOS>MOLECULE
ASD06350032
  42   44    0    0    0
SMALL
NO_CHARGES


@<TRIPOS>ATOM
   1 C1            -0.3708     0.4704    -0.3711 C.3     
   2 O2            -0.2206    -0.9500    -0.3294 O.3     
   3 C3             0.4296    -1.4705     0.7445 C.ar    
   4 C4             0.6109    -2.8419     0.8494 C.ar    
   5 C5             1.2721    -3.3684     1.9421 C.ar    
   6 C6             1.7530    -2.5299     2.9307 C.ar    
   7 C7             1.5732    -1.1628     2.8287 C.ar    
   8 C8             0.9181    -0.6308     1.7349 C.ar    
   9 C9             2.4739    -3.1070     4.1216 C.3     
  10 N10            3.9079    -3.1869     3.8327 N.pl3   
  11 C11            4.7787    -3.6884     4.7844 C.ar    
  12 N12            4.2980    -4.0915     5.9511 N.ar    
  13 C13            5.1008    -4.5771     6.8862 C.ar    
  14 C14            6.4571    -4.6616     6.6351 C.ar    
  15 C15            6.9331    -4.2293     5.3976 C.ar    
  16 N16            6.0716    -3.7584     4.5041 N.ar    
  17 O17            8.2556    -4.2938     5.1094 O.3     
  18 C18            8.6529    -3.9517     3.8551 C.ar    
  19 C19            8.8103    -4.9300     2.8854 C.ar    
  20 C20            9.2144    -4.5800     1.6108 C.ar    
  21 C21            9.4618    -3.2557     1.3012 C.ar    
  22 C22            9.3065    -2.2767     2.2655 C.ar    
  23 C23            8.8964    -2.6201     3.5409 C.ar    
  24 F24            8.7442    -1.6640     4.4830 F       
  25 N25            9.8944    -2.8849    -0.0649 N.pl3   
  26 O26           10.0320    -3.7463    -0.9150 O.2     
  27 O27           10.1127    -1.7184    -0.3390 O.2     
  28 H28            0.6129     0.9400    -0.3685 H       
  29 H29           -0.9057     0.7528    -1.2779 H       
  30 H30           -0.9340     0.8020     0.5012 H       
  31 H31            0.2351    -3.4973     0.0777 H       
  32 H32            1.4132    -4.4360     2.0244 H       
  33 H33            1.9491    -0.5099     3.6025 H       
  34 H34            0.7779     0.4371     1.6557 H       
  35 H35            2.3132    -2.4668     4.9889 H       
  36 H36            2.0892    -4.1052     4.3305 H       
  37 H37            4.2472    -2.8884     2.9743 H       
  38 H38            4.6998    -4.9030     7.8346 H       
  39 H39            7.1333    -5.0532     7.3806 H       
  40 H40            8.6177    -5.9651     3.1260 H       
  41 H41            9.3373    -5.3423     0.8557 H       
  42 H42            9.5008    -1.2428     2.0212 H       
@<TRIPOS>BOND
   1    1    2 1
   2    1   28 1
   3    1   29 1
   4    1   30 1
   5    2    3 1
   6    3    4 ar
   7    3    8 ar
   8    4    5 ar
   9    4   31 1
  10    5    6 ar
  11    5   32 1
  12    6    7 ar
  13    6    9 1
  14    7    8 ar
  15    7   33 1
  16    8   34 1
  17    9   10 1
  18    9   35 1
  19    9   36 1
  20   10   11 1
  21   10   37 1
  22   11   12 ar
  23   11   16 ar
  24   12   13 ar
  25   13   14 ar
  26   13   38 1
  27   14   15 ar
  28   14   39 1
  29   15   16 ar
  30   15   17 1
  31   17   18 1
  32   18   19 ar
  33   18   23 ar
  34   19   20 ar
  35   19   40 1
  36   20   21 ar
  37   20   41 1
  38   21   22 ar
  39   21   25 1
  40   22   23 ar
  41   22   42 1
  42   23   24 1
  43   25   26 2
  44   25   27 2

#	End of record

