#	Name: ASD03731180
#	Creating user name:	WinNT
#	Creation time:	15. 06. 2019 20:45

#	Modifying user name:	WinNT
#	Modification time:	15. 06. 2019 20:45

#	Program:	/corina/corina34_cracker 3.40 0067  02.08.2006

@<TRIPOS>MOLECULE
ASD03731180
  65   71    0    0    0
SMALL
NO_CHARGES


@<TRIPOS>ATOM
   1 N1             0.1434     1.0476     1.0861 N.am    
   2 C2             0.0754    -0.2240     0.6448 C.2     
   3 O3             1.0861    -0.8956     0.5675 O.2     
   4 N4            -1.1129    -0.7512     0.2892 N.am    
   5 C5            -1.1708    -2.0356    -0.2686 C.ar    
   6 C6            -2.3781    -2.7310    -0.2973 C.ar    
   7 C7            -2.4295    -4.0001    -0.8504 C.ar    
   8 C8            -1.2846    -4.5742    -1.3718 C.ar    
   9 C9            -0.0866    -3.8850    -1.3431 C.ar    
  10 C10           -0.0282    -2.6156    -0.7986 C.ar    
  11 O11           -3.5027    -2.1655     0.2166 O.3     
  12 C12           -4.6460    -2.8997     0.2102 C.ar    
  13 C13           -4.9563    -3.7122     1.2915 C.ar    
  14 C14           -6.1194    -4.4572     1.2827 C.ar    
  15 C15           -6.9743    -4.3939     0.1977 C.ar    
  16 C16           -6.6673    -3.5854    -0.8812 C.ar    
  17 C17           -5.5082    -2.8339    -0.8750 C.ar    
  18 C18            1.4351     1.6208     1.4727 C.3     
  19 C19            1.2345     3.0660     1.9329 C.3     
  20 O20            8.0479     1.5990     0.1677 O.3     
  21 C21            9.4632     1.8608     0.2088 C.3     
  22 O22            9.5472     3.2971     0.1558 O.3     
  23 C23            8.3787     3.7521     0.6965 C.ar    
  24 C24            7.4569     2.7077     0.7025 C.ar    
  25 C25            8.0215     4.9929     1.1929 C.ar    
  26 C26            6.7431     5.2085     1.6989 C.ar    
  27 C27            5.8284     4.1598     1.6920 C.ar    
  28 C28            6.1834     2.9199     1.2034 C.ar    
  29 O29            6.1997     6.3345     2.2438 O.3     
  30 C30            4.5481     4.7037     2.2674 C.3     
  31 C31            4.7634     6.2229     2.2313 C.3     
  32 N32            2.5262     3.6391     2.3195 N.am    
  33 C33            3.3455     4.2896     1.4693 C.2     
  34 C34            4.2918     4.2078     3.6595 C.ar    
  35 C35            5.0022     4.2699     4.8375 C.ar    
  36 C36            4.4857     3.7029     5.9890 C.ar    
  37 C37            3.2547     3.0733     5.9538 C.ar    
  38 C38            2.5398     3.0076     4.7761 C.ar    
  39 C39            3.0518     3.5759     3.6122 C.ar    
  40 O40            3.1495     4.4995     0.2910 O.2     
  41 H41           -0.6623     1.5847     1.1441 H       
  42 H42           -1.9280    -0.2417     0.4193 H       
  43 H43           -3.3637    -4.5413    -0.8740 H       
  44 H44           -1.3264    -5.5638    -1.8022 H       
  45 H45            0.8051    -4.3377    -1.7509 H       
  46 H46            0.9081    -2.0776    -0.7819 H       
  47 H47           -4.2887    -3.7623     2.1390 H       
  48 H48           -6.3612    -5.0900     2.1238 H       
  49 H49           -7.8832    -4.9771     0.1929 H       
  50 H50           -7.3363    -3.5383    -1.7277 H       
  51 H51           -5.2713    -2.1989    -1.7159 H       
  52 H52            1.8629     1.0361     2.2871 H       
  53 H53            2.1112     1.6022     0.6179 H       
  54 H54            0.8068     3.6507     1.1185 H       
  55 H55            0.5584     3.0846     2.7877 H       
  56 H56            9.8952     1.4858     1.1366 H       
  57 H57            9.9601     1.4160    -0.6534 H       
  58 H58            8.7394     5.7997     1.1877 H       
  59 H59            5.4663     2.1124     1.2111 H       
  60 H60            4.3306     6.6962     3.1126 H       
  61 H61            4.3498     6.6509     1.3182 H       
  62 H62            5.9633     4.7619     4.8627 H       
  63 H63            5.0422     3.7522     6.9133 H       
  64 H64            2.8516     2.6306     6.8526 H       
  65 H65            1.5795     2.5137     4.7564 H       
@<TRIPOS>BOND
   1    1    2 am
   2    1   18 1
   3    1   41 1
   4    2    3 2
   5    2    4 am
   6    4    5 1
   7    4   42 1
   8    5    6 ar
   9    5   10 ar
  10    6    7 ar
  11    6   11 1
  12    7    8 ar
  13    7   43 1
  14    8    9 ar
  15    8   44 1
  16    9   10 ar
  17    9   45 1
  18   10   46 1
  19   11   12 1
  20   12   13 ar
  21   12   17 ar
  22   13   14 ar
  23   13   47 1
  24   14   15 ar
  25   14   48 1
  26   15   16 ar
  27   15   49 1
  28   16   17 ar
  29   16   50 1
  30   17   51 1
  31   18   19 1
  32   18   52 1
  33   18   53 1
  34   19   32 1
  35   19   54 1
  36   19   55 1
  37   20   21 1
  38   20   24 1
  39   21   22 1
  40   21   56 1
  41   21   57 1
  42   22   23 1
  43   23   24 ar
  44   23   25 ar
  45   24   28 ar
  46   25   26 ar
  47   25   58 1
  48   26   27 ar
  49   26   29 1
  50   27   28 ar
  51   27   30 1
  52   28   59 1
  53   29   31 1
  54   30   31 1
  55   30   33 1
  56   30   34 1
  57   31   60 1
  58   31   61 1
  59   32   33 am
  60   32   39 1
  61   33   40 2
  62   34   35 ar
  63   34   39 ar
  64   35   36 ar
  65   35   62 1
  66   36   37 ar
  67   36   63 1
  68   37   38 ar
  69   37   64 1
  70   38   39 ar
  71   38   65 1

#	End of record

