#	Name: ASD01100058
#	Creating user name:	WinNT
#	Creation time:	15. 06. 2019 18:58

#	Modifying user name:	WinNT
#	Modification time:	15. 06. 2019 18:58

#	Program:	/corina/corina34_cracker 3.40 0067  02.08.2006

@<TRIPOS>MOLECULE
ASD01100058
  41   42    0    0    0
SMALL
NO_CHARGES


@<TRIPOS>ATOM
   1 C1             0.2703     1.7623    -2.0927 C.ar    
   2 C2            -0.0213     0.4559    -1.7431 C.ar    
   3 C3             0.8594    -0.2613    -0.9531 C.ar    
   4 C4             2.0300     0.3278    -0.5136 C.ar    
   5 C5             2.3208     1.6333    -0.8632 C.ar    
   6 C6             1.4411     2.3503    -1.6526 C.ar    
   7 C7             3.5970     2.2751    -0.3833 C.3     
   8 C8             3.2683     3.3496     0.6551 C.3     
   9 C9             2.7084     2.6868     1.9153 C.3     
  10 C10            4.5400     4.1237     1.0082 C.3     
  11 Cl11          -1.4920    -0.2831    -2.2951 Cl      
  12 C12            4.3116     2.9063    -1.5503 C.2     
  13 N13            5.6356     3.1483    -1.4789 N.am    
  14 O14            3.6953     3.1965    -2.5539 O.2     
  15 C15            6.3146     3.6381    -2.5911 C.2     
  16 N16            5.7793     3.8982    -3.7430 N.2     
  17 C17            6.5798     4.3592    -4.6873 C.2     
  18 C18            7.8651     4.5044    -4.3363 C.2     
  19 S19            8.0353     4.0095    -2.6534 S.3     
  20 S20            9.1598     5.0940    -5.3758 S.3     
  21 C21            2.2279     4.3130     0.0804 C.3     
  22 C22           10.6121     5.0387    -4.2902 C.3     
  23 H23           -0.4147     2.3212    -2.7131 H       
  24 H24            0.6322    -1.2810    -0.6796 H       
  25 H25            2.7174    -0.2318     0.1034 H       
  26 H26            1.6689     3.3702    -1.9254 H       
  27 H27            4.2373     1.5174     0.0682 H       
  28 H28            3.4496     2.0004     2.3248 H       
  29 H29            2.4742     3.4523     2.6551 H       
  30 H30            1.8024     2.1353     1.6638 H       
  31 H31            5.0120     4.4834     0.0939 H       
  32 H32            4.2845     4.9720     1.6431 H       
  33 H33            5.2294     3.4672     1.5389 H       
  34 H34            6.1153     2.9812    -0.6525 H       
  35 H35            6.2222     4.6027    -5.6768 H       
  36 H36            1.3030     3.7719    -0.1195 H       
  37 H37            2.0347     5.1099     0.7985 H       
  38 H38            2.6047     4.7435    -0.8474 H       
  39 H39           11.4880     5.3879    -4.8370 H       
  40 H40           10.4439     5.6806    -3.4255 H       
  41 H41           10.7769     4.0145    -3.9559 H       
@<TRIPOS>BOND
   1    1    2 ar
   2    1    6 ar
   3    1   23 1
   4    2    3 ar
   5    2   11 1
   6    3    4 ar
   7    3   24 1
   8    4    5 ar
   9    4   25 1
  10    5    6 ar
  11    5    7 1
  12    6   26 1
  13    7    8 1
  14    7   12 1
  15    7   27 1
  16    8    9 1
  17    8   10 1
  18    8   21 1
  19    9   28 1
  20    9   29 1
  21    9   30 1
  22   10   31 1
  23   10   32 1
  24   10   33 1
  25   12   13 am
  26   12   14 2
  27   13   15 1
  28   13   34 1
  29   15   16 2
  30   15   19 1
  31   16   17 1
  32   17   18 2
  33   17   35 1
  34   18   19 1
  35   18   20 1
  36   20   22 1
  37   21   36 1
  38   21   37 1
  39   21   38 1
  40   22   39 1
  41   22   40 1
  42   22   41 1

#	End of record

