#	Name: ASD05723016
#	Creating user name:	WinNT
#	Creation time:	15. 06. 2019 21:02

#	Modifying user name:	WinNT
#	Modification time:	15. 06. 2019 21:02

#	Program:	/corina/corina34_cracker 3.40 0067  02.08.2006

@<TRIPOS>MOLECULE
ASD05723016
 150  154    0    0    0
SMALL
NO_CHARGES


@<TRIPOS>ATOM
   1 O1            -0.1962    -0.4543     0.7786 O.3     
   2 C2             0.3585    -1.6714     0.8436 C.2     
   3 O3             1.5067    -1.8531     0.5167 O.2     
   4 C4            -0.4573    -2.8142     1.3921 C.3     
   5 C5             0.1957    -3.2651     2.7049 C.3     
   6 C6            -0.5979    -4.4426     3.2771 C.3     
   7 C7            -0.5037    -5.6054     2.2863 C.3     
   8 C8            -1.1708    -5.2066     0.9655 C.3     
   9 N9            -0.5757    -3.9480     0.4736 N.am    
  10 C10           -0.1773    -3.9049    -0.8154 C.2     
  11 O11            0.5317    -2.9975    -1.2071 O.2     
  12 C12           -0.6323    -4.9247    -1.8029 C.2     
  13 O13           -1.6308    -5.5699    -1.5875 O.2     
  14 C14            0.1168    -5.1973    -3.0809 C.3     
  15 C15            0.5614    -6.6672    -3.0748 C.3     
  16 C16            1.2346    -7.0225    -4.3997 C.3     
  17 C17            0.2856    -6.6970    -5.5541 C.3     
  18 C18           -0.1417    -5.2296    -5.4780 C.3     
  19 O19           -0.7330    -4.9678    -4.2061 O.3     
  20 O20            1.2688    -4.3589    -3.1773 O.3     
  21 C21            1.5460    -6.8962    -1.9267 C.3     
  22 C22           -1.1813    -4.9583    -6.5696 C.3     
  23 C23           -0.5153    -4.4410    -7.8399 C.3     
  24 C24           -0.7473    -5.4196    -8.9646 C.2     
  25 C25           -1.1203    -3.1073    -8.2173 C.2     
  26 C26           -2.5809    -3.0398    -8.5936 C.3     
  27 C27           -0.3708    -2.0090    -8.2285 C.2     
  28 C28           -0.9313    -0.7039    -8.5677 C.2     
  29 C29           -0.1215     0.3735    -8.6048 C.2     
  30 C30           -0.6876     1.7039    -8.8696 C.2     
  31 C31            0.1220     2.7560    -8.8188 C.2     
  32 C32           -0.3319     4.1719    -9.0101 C.3     
  33 C33           -1.8409     4.3064    -8.8379 C.3     
  34 C34            0.4095     5.1080    -8.0598 C.3     
  35 C35            0.0097     4.9425    -6.5979 C.3     
  36 C36            0.6126     3.6545    -6.0276 C.3     
  37 C37            0.5604     6.1092    -5.8048 C.2     
  38 O38            1.5373     6.6944    -6.2047 O.2     
  39 C39           -0.1141     6.5411    -4.5256 C.3     
  40 O40           -0.3455     7.9576    -4.6041 O.3     
  41 C41           -1.6065     8.3097    -5.1770 C.3     
  42 C42            0.7956     6.2591    -3.3369 C.3     
  43 O43            2.0523     5.7582    -3.8072 O.3     
  44 C44            0.2150     5.2563    -2.3658 C.2     
  45 C45           -0.6793     4.1562    -2.8664 C.3     
  46 C46            0.5373     5.3833    -1.1043 C.2     
  47 C47            0.1081     4.4953     0.0223 C.3     
  48 C48           -1.3868     4.6289     0.3009 C.3     
  49 C49            0.4846     3.0655    -0.2519 C.2     
  50 O50            1.4245     2.8129    -0.9751 O.2     
  51 C51           -0.2836     1.9333     0.3727 C.3     
  52 C52            0.6278     0.7077     0.5180 C.3     
  53 C53            1.5898     0.9377     1.6874 C.3     
  54 C54            0.7928     1.3223     2.9354 C.3     
  55 C55            2.5609     2.0661     1.3345 C.3     
  56 C56            3.4661     1.6191     0.1849 C.3     
  57 C57            4.3334     2.7953    -0.2683 C.3     
  58 C58            5.2386     2.3484    -1.4180 C.3     
  59 O59            6.0486     3.4469    -1.8412 O.3     
  60 C60            6.4011     3.4097    -3.2255 C.3     
  61 C61            6.1376     1.2046    -0.9441 C.3     
  62 O62            6.9831     0.7872    -2.0179 O.3     
  63 C63            5.2704     0.0284    -0.4909 C.3     
  64 C64            4.3652     0.4754     0.6587 C.3     
  65 C65           -1.5556    -7.0605   -10.6810 C.2     
  66 C66           -0.2669    -6.7309   -10.7814 C.2     
  67 C67            0.1794    -5.8263    -9.8334 C.2     
  68 C68           -2.2798    -8.0214   -11.5882 C.3     
  69 S69           -2.2794    -6.2043    -9.3258 S.3     
  70 H70           -1.4603    -2.4347     1.6274 H       
  71 H71            1.2202    -3.5811     2.5044 H       
  72 H72            0.1983    -2.4391     3.4129 H       
  73 H73           -0.1712    -4.7403     4.2336 H       
  74 H74           -1.6386    -4.1542     3.4087 H       
  75 H75            0.5455    -5.8418     2.1062 H       
  76 H76           -1.0083    -6.4766     2.7021 H       
  77 H77           -1.0053    -6.0051     0.2402 H       
  78 H78           -2.2406    -5.0673     1.1183 H       
  79 H79           -0.3154    -7.3008    -2.9346 H       
  80 H80            2.1542    -6.4476    -4.5070 H       
  81 H81            1.4640    -8.0901    -4.4116 H       
  82 H82            0.7903    -6.8813    -6.5019 H       
  83 H83           -0.5996    -7.3302    -5.4856 H       
  84 H84            0.7259    -4.5933    -5.6239 H       
  85 H85            1.0683    -3.4129    -3.1727 H       
  86 H86            1.0614    -6.6589    -0.9796 H       
  87 H87            1.8621    -7.9394    -1.9217 H       
  88 H88            2.4162    -6.2536    -2.0606 H       
  89 H89           -1.7134    -5.8840    -6.7896 H       
  90 H90           -1.8885    -4.2164    -6.1989 H       
  91 H91            0.5538    -4.3193    -7.6808 H       
  92 H92           -3.1808    -2.8906    -7.6959 H       
  93 H93           -2.7411    -2.2085    -9.2801 H       
  94 H94           -2.8751    -3.9717    -9.0765 H       
  95 H95            0.6820    -2.0729    -7.9699 H       
  96 H96           -1.9803    -0.5689    -8.7859 H       
  97 H97            0.9377     0.2544    -8.4405 H       
  98 H98           -1.7318     1.7806    -9.1168 H       
  99 H99            1.1837     2.5642    -8.6575 H       
 100 H100          -0.0791     4.4733   -10.0415 H       
 101 H101          -2.1219     3.9881    -7.8340 H       
 102 H102          -2.1320     5.3467    -8.9840 H       
 103 H103          -2.3476     3.6808    -9.5727 H       
 104 H104           1.4866     4.9332    -8.1538 H       
 105 H105           0.2159     6.1428    -8.3642 H       
 106 H106          -1.0695     4.9278    -6.4806 H       
 107 H107           1.6762     3.6161    -6.2625 H       
 108 H108           0.4786     3.6385    -4.9459 H       
 109 H109           0.1117     2.7926    -6.4685 H       
 110 H110          -1.0727     6.0459    -4.4370 H       
 111 H111          -1.6667     7.9172    -6.1920 H       
 112 H112          -2.4101     7.8854    -4.5751 H       
 113 H113          -1.7045     9.3950    -5.2006 H       
 114 H114           0.9697     7.1984    -2.7991 H       
 115 H115           2.6835     5.5561    -3.1030 H       
 116 H116          -0.8574     4.2899    -3.9334 H       
 117 H117          -0.1998     3.1923    -2.6960 H       
 118 H118          -1.6291     4.1889    -2.3326 H       
 119 H119           1.1832     6.2329    -0.8450 H       
 120 H120           0.6433     4.8141     0.9371 H       
 121 H121          -1.9506     4.2374    -0.5458 H       
 122 H122          -1.6409     4.0650     1.1985 H       
 123 H123          -1.6364     5.6795     0.4491 H       
 124 H124          -0.6432     2.2306     1.3572 H       
 125 H125          -1.1305     1.6672    -0.2588 H       
 126 H126           1.1961     0.5601    -0.3979 H       
 127 H127           2.1505     0.0234     1.8818 H       
 128 H128          -0.0117     0.6030     3.0888 H       
 129 H129           1.4526     1.3200     3.8030 H       
 130 H130           0.3695     2.3181     2.8036 H       
 131 H131           1.9976     2.9487     1.0314 H       
 132 H132           3.1711     2.3059     2.2053 H       
 133 H133           2.8527     1.2776    -0.6489 H       
 134 H134           3.6929     3.6102    -0.6059 H       
 135 H135           4.9468     3.1369     0.5654 H       
 136 H136           4.6251     2.0068    -2.2517 H       
 137 H137           7.0155     4.2769    -3.4675 H       
 138 H138           6.9614     2.4981    -3.4334 H       
 139 H139           5.4953     3.4256    -3.8317 H       
 140 H140           6.7511     1.5462    -0.1104 H       
 141 H141           7.5816     0.0631    -1.7885 H       
 142 H142           4.6570    -0.3131    -1.3247 H       
 143 H143           5.9109    -0.7864    -0.1534 H       
 144 H144           4.9786     0.8170     1.4925 H       
 145 H145           3.7473    -0.3625     0.9816 H       
 146 H146           0.3794    -7.1393   -11.5443 H       
 147 H147           1.2005    -5.4761    -9.8001 H       
 148 H148          -2.2070    -9.0300   -11.1815 H       
 149 H149          -3.3286    -7.7333   -11.6597 H       
 150 H150          -1.8276    -7.9959   -12.5797 H       
@<TRIPOS>BOND
   1    1    2 1
   2    1   52 1
   3    2    3 2
   4    2    4 1
   5    4    5 1
   6    4    9 1
   7    4   70 1
   8    5    6 1
   9    5   71 1
  10    5   72 1
  11    6    7 1
  12    6   73 1
  13    6   74 1
  14    7    8 1
  15    7   75 1
  16    7   76 1
  17    8    9 1
  18    8   77 1
  19    8   78 1
  20    9   10 am
  21   10   11 2
  22   10   12 1
  23   12   13 2
  24   12   14 1
  25   14   19 1
  26   14   20 1
  27   14   15 1
  28   15   16 1
  29   15   21 1
  30   15   79 1
  31   16   17 1
  32   16   80 1
  33   16   81 1
  34   17   18 1
  35   17   82 1
  36   17   83 1
  37   18   19 1
  38   18   22 1
  39   18   84 1
  40   20   85 1
  41   21   86 1
  42   21   87 1
  43   21   88 1
  44   22   23 1
  45   22   89 1
  46   22   90 1
  47   23   24 1
  48   23   25 1
  49   23   91 1
  50   24   67 2
  51   24   69 1
  52   25   26 1
  53   25   27 2
  54   26   92 1
  55   26   93 1
  56   26   94 1
  57   27   28 1
  58   27   95 1
  59   28   29 2
  60   28   96 1
  61   29   30 1
  62   29   97 1
  63   30   31 2
  64   30   98 1
  65   31   32 1
  66   31   99 1
  67   32   33 1
  68   32   34 1
  69   32  100 1
  70   33  101 1
  71   33  102 1
  72   33  103 1
  73   34   35 1
  74   34  104 1
  75   34  105 1
  76   35   36 1
  77   35   37 1
  78   35  106 1
  79   36  107 1
  80   36  108 1
  81   36  109 1
  82   37   38 2
  83   37   39 1
  84   39   40 1
  85   39   42 1
  86   39  110 1
  87   40   41 1
  88   41  111 1
  89   41  112 1
  90   41  113 1
  91   42   43 1
  92   42   44 1
  93   42  114 1
  94   43  115 1
  95   44   45 1
  96   44   46 2
  97   45  116 1
  98   45  117 1
  99   45  118 1
 100   46   47 1
 101   46  119 1
 102   47   48 1
 103   47   49 1
 104   47  120 1
 105   48  121 1
 106   48  122 1
 107   48  123 1
 108   49   50 2
 109   49   51 1
 110   51   52 1
 111   51  124 1
 112   51  125 1
 113   52   53 1
 114   52  126 1
 115   53   54 1
 116   53   55 1
 117   53  127 1
 118   54  128 1
 119   54  129 1
 120   54  130 1
 121   55   56 1
 122   55  131 1
 123   55  132 1
 124   56   57 1
 125   56   64 1
 126   56  133 1
 127   57   58 1
 128   57  134 1
 129   57  135 1
 130   58   59 1
 131   58   61 1
 132   58  136 1
 133   59   60 1
 134   60  137 1
 135   60  138 1
 136   60  139 1
 137   61   62 1
 138   61   63 1
 139   61  140 1
 140   62  141 1
 141   63   64 1
 142   63  142 1
 143   63  143 1
 144   64  144 1
 145   64  145 1
 146   65   66 2
 147   65   68 1
 148   65   69 1
 149   66   67 1
 150   66  146 1
 151   67  147 1
 152   68  148 1
 153   68  149 1
 154   68  150 1

#	End of record

