#	Name: ASD01411195
#	Creating user name:	WinNT
#	Creation time:	15. 06. 2019 19:19

#	Modifying user name:	WinNT
#	Modification time:	15. 06. 2019 19:19

#	Program:	/corina/corina34_cracker 3.40 0067  02.08.2006

@<TRIPOS>MOLECULE
ASD01411195
  65   67    0    0    0
SMALL
NO_CHARGES


@<TRIPOS>ATOM
   1 C1            -1.3359     1.1151    -0.0649 C.ar    
   2 C2            -1.1096    -0.2388    -0.0531 C.ar    
   3 C3             0.1862    -0.7503    -0.0330 C.ar    
   4 C4             1.2605     0.1288    -0.0187 C.ar    
   5 C5             1.0342     1.4917    -0.0284 C.ar    
   6 C6            -0.2576     1.9890    -0.0526 C.ar    
   7 P7            -2.4812    -1.4325    -0.0575 P.3     
   8 N8            -1.8360    -2.9017     0.3158 N.2     
   9 C9            -0.5489    -3.0652     0.2912 C.2     
  10 N10            0.3839    -2.1281    -0.0342 N.pl3   
  11 C11           -0.0446    -4.4032     0.6530 C.2     
  12 C12           -0.8166    -5.4675     1.0065 C.2     
  13 C13            0.1299    -6.6120     1.2871 C.3     
  14 N14            1.4805    -6.0850     1.0577 N.am    
  15 C15            1.3657    -4.7985     0.6825 C.2     
  16 C16            2.7328    -6.8310     1.2049 C.3     
  17 C17            3.0042    -7.6289    -0.0719 C.3     
  18 C18            4.3120    -8.4080     0.0818 C.3     
  19 C19            4.1977    -9.3673     1.2682 C.3     
  20 C20            4.5834    -9.2060    -1.1951 C.3     
  21 C21            5.4627    -7.4296     0.3261 C.3     
  22 O22           -3.4880    -1.0497     0.9575 O.2     
  23 O23           -3.1605    -1.4845    -1.5162 O.3     
  24 O24           -2.1581    -5.4950     1.0898 O.3     
  25 O25            2.2992    -4.0671     0.4106 O.2     
  26 C26           -3.7567    -0.3445    -2.1382 C.3     
  27 C27           -4.3044    -0.7405    -3.5108 C.3     
  28 C28           -0.0165    -7.0732     2.7386 C.3     
  29 C29           -1.5003    -7.1380     3.1059 C.3     
  30 C30            0.6095    -8.4601     2.8986 C.3     
  31 C31            0.6949    -6.0828     3.6626 C.3     
  32 F32           -0.4685     3.3234    -0.0645 F       
  33 H33           -2.3457     1.4976    -0.0882 H       
  34 H34            2.2710    -0.2519     0.0004 H       
  35 H35            1.8712     2.1742    -0.0167 H       
  36 H36            1.2632    -2.4487    -0.2890 H       
  37 H37           -0.0705    -7.4402     0.6073 H       
  38 H38            3.5526    -6.1340     1.3790 H       
  39 H39            2.6514    -7.5144     2.0501 H       
  40 H40            2.1844    -8.3259    -0.2460 H       
  41 H41            3.0856    -6.9455    -0.9171 H       
  42 H42            3.3780   -10.0643     1.0941 H       
  43 H43            5.1294    -9.9223     1.3777 H       
  44 H44            4.0044    -8.7988     2.1778 H       
  45 H45            4.6648    -8.5225    -2.0403 H       
  46 H46            5.5151    -9.7610    -1.0856 H       
  47 H47            3.7636    -9.9029    -1.3691 H       
  48 H48            5.2694    -6.8611     1.2357 H       
  49 H49            6.3944    -7.9846     0.4356 H       
  50 H50            5.5441    -6.7462    -0.5191 H       
  51 H51           -2.6280    -4.6770     0.8773 H       
  52 H52           -4.5710     0.0252    -1.5150 H       
  53 H53           -3.0070     0.4376    -2.2580 H       
  54 H54           -3.4902    -1.1102    -4.1341 H       
  55 H55           -5.0541    -1.5226    -3.3910 H       
  56 H56           -4.7592     0.1291    -3.9853 H       
  57 H57           -2.0071    -7.8436     2.4476 H       
  58 H58           -1.6046    -7.4666     4.1400 H       
  59 H59           -1.9463    -6.1500     2.9919 H       
  60 H60            1.6579    -8.4218     2.6025 H       
  61 H61            0.5374    -8.7733     3.9401 H       
  62 H62            0.0794    -9.1731     2.2672 H       
  63 H63            0.2489    -5.0948     3.5486 H       
  64 H64            0.5907    -6.4114     4.6966 H       
  65 H65            1.7520    -6.0366     3.4009 H       
@<TRIPOS>BOND
   1    1    2 ar
   2    1    6 ar
   3    1   33 1
   4    2    3 ar
   5    2    7 1
   6    3    4 ar
   7    3   10 1
   8    4    5 ar
   9    4   34 1
  10    5    6 ar
  11    5   35 1
  12    6   32 1
  13    7    8 1
  14    7   22 2
  15    7   23 1
  16    8    9 2
  17    9   10 1
  18    9   11 1
  19   10   36 1
  20   11   12 2
  21   11   15 1
  22   12   13 1
  23   12   24 1
  24   13   14 1
  25   13   28 1
  26   13   37 1
  27   14   15 am
  28   14   16 1
  29   15   25 2
  30   16   17 1
  31   16   38 1
  32   16   39 1
  33   17   18 1
  34   17   40 1
  35   17   41 1
  36   18   19 1
  37   18   20 1
  38   18   21 1
  39   19   42 1
  40   19   43 1
  41   19   44 1
  42   20   45 1
  43   20   46 1
  44   20   47 1
  45   21   48 1
  46   21   49 1
  47   21   50 1
  48   23   26 1
  49   24   51 1
  50   26   27 1
  51   26   52 1
  52   26   53 1
  53   27   54 1
  54   27   55 1
  55   27   56 1
  56   28   29 1
  57   28   30 1
  58   28   31 1
  59   29   57 1
  60   29   58 1
  61   29   59 1
  62   30   60 1
  63   30   61 1
  64   30   62 1
  65   31   63 1
  66   31   64 1
  67   31   65 1

#	End of record

