#	Name: ASD04882477
#	Creating user name:	WinNT
#	Creation time:	15. 06. 2019 20:54

#	Modifying user name:	WinNT
#	Modification time:	15. 06. 2019 20:54

#	Program:	/corina/corina34_cracker 3.40 0067  02.08.2006

@<TRIPOS>MOLECULE
ASD04882477
  86   91    0    0    0
SMALL
NO_CHARGES


@<TRIPOS>ATOM
   1 C1            -0.0214     1.4011    -0.0091 C.ar    
   2 C2            -0.0115     0.0036    -0.0053 C.ar    
   3 C3            -1.2093    -0.7020    -0.0159 C.ar    
   4 C4            -2.4096    -0.0270    -0.0302 C.ar    
   5 C5            -2.4267     1.3706    -0.0346 C.ar    
   6 C6            -1.2239     2.0824    -0.0182 C.ar    
   7 N7             1.1999    -0.6830     0.0088 N.3     
   8 C8             1.3078    -1.5363     1.2004 C.3     
   9 C9             1.3717    -1.4730    -1.2184 C.3     
  10 C10            2.7456    -2.1472    -1.1998 C.3     
  11 N11            2.8536    -3.0005    -0.0082 N.3     
  12 C12            2.6817    -2.2105     1.2190 C.3     
  13 C13           -3.7126     2.0935    -0.0510 C.2     
  14 O14           -3.7265     3.3094    -0.0548 O.2     
  15 N15           -4.8720     1.4063    -0.0618 N.am    
  16 N16            1.1866     2.1110     0.0021 N.am    
  17 C17            4.0686    -3.6892     0.0059 C.ar    
  18 C18            4.0814    -5.0780     0.0098 C.ar    
  19 C19            5.2848    -5.7560     0.0232 C.ar    
  20 C20            6.4757    -5.0536     0.0333 C.ar    
  21 C21            6.4665    -3.6706     0.0295 C.ar    
  22 C22            5.2672    -2.9866     0.0103 C.ar    
  23 C23            1.2297     3.3600     0.5068 C.2     
  24 C24            2.5159     4.0731     0.5999 C.2     
  25 O25            0.2069     3.8985     0.8853 O.2     
  26 C26            2.7446     5.4292     1.1198 C.2     
  27 C27            4.0632     5.6501     1.0065 C.2     
  28 O28            4.6465     4.5658     0.4723 O.3     
  29 C29            3.7441     3.6107     0.2273 C.2     
  30 C30            2.7839    -5.8444    -0.0002 C.3     
  31 C31            4.7755     6.9143     1.4135 C.3     
  32 C32            5.8660     6.7985     2.4804 C.3     
  33 C33            6.2477     7.0533     1.0208 C.3     
  34 C34           -6.1489     2.1242    -0.0781 C.3     
  35 C35           -7.3003     1.1166    -0.0878 C.3     
  36 C36           -8.6339     1.8663    -0.1048 C.3     
  37 C37           -9.7853     0.8588    -0.1145 C.3     
  38 N38          -11.0657     1.5787    -0.1308 N.3     
  39 C39          -12.1847     0.6579    -0.3787 C.3     
  40 C40          -11.2692     2.3203     1.1222 C.3     
  41 C41          -12.5833     3.1014     1.0388 C.3     
  42 O42          -13.6549     2.1943     0.7665 O.3     
  43 C43          -13.4895     1.4557    -0.4470 C.3     
  44 H44           -1.1985    -1.7820    -0.0132 H       
  45 H45           -3.3384    -0.5780    -0.0384 H       
  46 H46           -1.2340     3.1623    -0.0216 H       
  47 H47            1.1898    -0.9266     2.0962 H       
  48 H48            0.5291    -2.2985     1.1736 H       
  49 H49            0.5937    -2.2345    -1.2727 H       
  50 H50            1.3002    -0.8172    -2.0861 H       
  51 H51            2.8637    -2.7569    -2.0955 H       
  52 H52            3.5244    -1.3850    -1.1730 H       
  53 H53            3.4598    -1.4490     1.2733 H       
  54 H54            2.7532    -2.8663     2.0867 H       
  55 H55           -4.8608     0.4364    -0.0587 H       
  56 H56            1.9919     1.7035    -0.3534 H       
  57 H57            5.2955    -6.8359     0.0262 H       
  58 H58            7.4152    -5.5862     0.0445 H       
  59 H59            7.3985    -3.1250     0.0377 H       
  60 H60            5.2607    -1.9066     0.0069 H       
  61 H61            2.0028     6.1087     1.5127 H       
  62 H62            3.9510     2.6407    -0.2003 H       
  63 H63            2.4806    -6.0320    -1.0302 H       
  64 H64            2.9189    -6.7941     0.5175 H       
  65 H65            2.0137    -5.2615     0.5050 H       
  66 H66            4.1665     7.8182     1.4123 H       
  67 H67            5.9747     7.6265     3.1809 H       
  68 H68            6.0683     5.8080     2.8879 H       
  69 H69            6.7011     6.2305     0.4681 H       
  70 H70            6.6075     8.0489     0.7611 H       
  71 H71           -6.2237     2.7528     0.8093 H       
  72 H72           -6.2040     2.7474    -0.9706 H       
  73 H73           -7.2255     0.4880    -0.9751 H       
  74 H74           -7.2452     0.4934     0.8048 H       
  75 H75           -8.7087     2.4950     0.7825 H       
  76 H76           -8.6890     2.4896    -0.9973 H       
  77 H77           -9.7105     0.2302    -1.0018 H       
  78 H78           -9.7302     0.2356     0.7781 H       
  79 H79          -12.0259     0.1383    -1.3237 H       
  80 H80          -12.2443    -0.0689     0.4314 H       
  81 H81          -11.3143     1.6201     1.9563 H       
  82 H82          -10.4423     3.0142     1.2728 H       
  83 H83          -12.7667     3.6073     1.9868 H       
  84 H84          -12.5183     3.8387     0.2387 H       
  85 H85          -13.4509     2.1451    -1.2904 H       
  86 H86          -14.3284     0.7713    -0.5737 H       
@<TRIPOS>BOND
   1    1    2 ar
   2    1   16 1
   3    1    6 ar
   4    2    3 ar
   5    2    7 1
   6    3    4 ar
   7    3   44 1
   8    4    5 ar
   9    4   45 1
  10    5    6 ar
  11    5   13 1
  12    6   46 1
  13    7    8 1
  14    7    9 1
  15    8   12 1
  16    8   47 1
  17    8   48 1
  18    9   10 1
  19    9   49 1
  20    9   50 1
  21   10   11 1
  22   10   51 1
  23   10   52 1
  24   11   12 1
  25   11   17 1
  26   12   53 1
  27   12   54 1
  28   13   14 2
  29   13   15 am
  30   15   34 1
  31   15   55 1
  32   16   23 am
  33   16   56 1
  34   17   18 ar
  35   17   22 ar
  36   18   19 ar
  37   18   30 1
  38   19   20 ar
  39   19   57 1
  40   20   21 ar
  41   20   58 1
  42   21   22 ar
  43   21   59 1
  44   22   60 1
  45   23   24 1
  46   23   25 2
  47   24   26 1
  48   24   29 2
  49   26   27 2
  50   26   61 1
  51   27   28 1
  52   27   31 1
  53   28   29 1
  54   29   62 1
  55   30   63 1
  56   30   64 1
  57   30   65 1
  58   31   32 1
  59   31   33 1
  60   31   66 1
  61   32   33 1
  62   32   67 1
  63   32   68 1
  64   33   69 1
  65   33   70 1
  66   34   35 1
  67   34   71 1
  68   34   72 1
  69   35   36 1
  70   35   73 1
  71   35   74 1
  72   36   37 1
  73   36   75 1
  74   36   76 1
  75   37   38 1
  76   37   77 1
  77   37   78 1
  78   38   39 1
  79   38   40 1
  80   39   43 1
  81   39   79 1
  82   39   80 1
  83   40   41 1
  84   40   81 1
  85   40   82 1
  86   41   42 1
  87   41   83 1
  88   41   84 1
  89   42   43 1
  90   43   85 1
  91   43   86 1

#	End of record

