#	Name: ASD05130103
#	Creating user name:	WinNT
#	Creation time:	15. 06. 2019 20:56

#	Modifying user name:	WinNT
#	Modification time:	15. 06. 2019 20:56

#	Program:	/corina/corina34_cracker 3.40 0067  02.08.2006

@<TRIPOS>MOLECULE
ASD05130103
  59   62    0    0    0
SMALL
NO_CHARGES


@<TRIPOS>ATOM
   1 C1            -2.2335     1.4431     0.0627 C.2     
   2 C2            -2.1970    -0.0635     0.0600 C.3     
   3 O3            -3.2980     2.0238     0.0752 O.2     
   4 N4            -1.0830     2.1450     0.0568 N.am    
   5 N5             1.1703     6.3905     0.0488 N.am    
   6 C6             1.1159     7.7330    -0.0540 C.2     
   7 C7            -0.1677     8.4054    -0.2688 C.2     
   8 C8            -1.3116     7.6612    -0.3648 C.2     
   9 C9            -1.2280     6.2526    -0.2538 C.ar    
  10 C10           -2.3731     5.4517    -0.3459 C.ar    
  11 N11           -2.2777     4.1444    -0.2406 N.ar    
  12 C12           -1.1149     3.5327    -0.0459 C.ar    
  13 C13            0.0676     4.2491     0.0574 C.ar    
  14 C14            0.0244     5.6353    -0.0466 C.ar    
  15 O15            2.1381     8.3900     0.0323 O.2     
  16 C16           -0.2268     9.8817    -0.3808 C.ar    
  17 C17           -0.4140    10.4813    -1.6263 C.ar    
  18 C18           -0.4689    11.8566    -1.7293 C.ar    
  19 C19           -0.3390    12.6448    -0.5989 C.ar    
  20 C20           -0.1521    12.0545     0.6471 C.ar    
  21 C21           -0.1013    10.6743     0.7587 C.ar    
  22 C22           -0.5558     9.6273    -2.8598 C.3     
  23 N23           -0.0201    12.8551     1.7889 N.am    
  24 C24           -0.5223    12.4362     2.9674 C.2     
  25 O25           -1.0166    11.3290     3.0585 O.2     
  26 N26           -0.4766    13.2445     4.0449 N.am    
  27 C27           -0.9107    12.7760     5.2899 C.ar    
  28 C28           -0.2726    13.1924     6.4507 C.ar    
  29 C29           -0.7046    12.7277     7.6797 C.ar    
  30 C30           -1.7724    11.8481     7.7518 C.ar    
  31 C31           -2.4082    11.4331     6.5967 C.ar    
  32 C32           -1.9840    11.8984     5.3671 C.ar    
  33 F33           -0.0847    13.1314     8.8102 F       
  34 F34           -0.3936    13.9904    -0.7058 F       
  35 C35            2.4608     5.7295     0.2579 C.3     
  36 C36            2.7310     5.6015     1.7584 C.3     
  37 H37           -3.2155    -0.4517     0.0705 H       
  38 H38           -1.6842    -0.4129    -0.8362 H       
  39 H39           -1.6648    -0.4156     0.9436 H       
  40 H40           -0.2327     1.6831     0.1241 H       
  41 H41           -2.2657     8.1421    -0.5227 H       
  42 H42           -3.3385     5.9096    -0.5037 H       
  43 H43            1.0063     3.7394     0.2165 H       
  44 H44           -0.6131    12.3190    -2.6946 H       
  45 H45            0.0394    10.2140     1.7255 H       
  46 H46           -1.6079     9.3908    -3.0189 H       
  47 H47           -0.1706    10.1695    -3.7233 H       
  48 H48            0.0084     8.7039    -2.7292 H       
  49 H49            0.4328    13.7109     1.7315 H       
  50 H50           -0.1428    14.1511     3.9573 H       
  51 H51            0.5600    13.8779     6.3939 H       
  52 H52           -2.1085    11.4858     8.7121 H       
  53 H53           -3.2405    10.7473     6.6560 H       
  54 H54           -2.4844    11.5764     4.4658 H       
  55 H55            2.4382     4.7375    -0.1931 H       
  56 H56            3.2511     6.3209    -0.2044 H       
  57 H57            2.7536     6.5936     2.2095 H       
  58 H58            1.9407     5.0101     2.2208 H       
  59 H59            3.6912     5.1097     1.9141 H       
@<TRIPOS>BOND
   1    1    2 1
   2    1    3 2
   3    1    4 am
   4    2   37 1
   5    2   38 1
   6    2   39 1
   7    4   12 1
   8    4   40 1
   9    5    6 am
  10    5   14 1
  11    5   35 1
  12    6    7 1
  13    6   15 2
  14    7    8 2
  15    7   16 1
  16    8    9 1
  17    8   41 1
  18    9   10 ar
  19    9   14 ar
  20   10   11 ar
  21   10   42 1
  22   11   12 ar
  23   12   13 ar
  24   13   14 ar
  25   13   43 1
  26   16   17 ar
  27   16   21 ar
  28   17   18 ar
  29   17   22 1
  30   18   19 ar
  31   18   44 1
  32   19   20 ar
  33   19   34 1
  34   20   21 ar
  35   20   23 1
  36   21   45 1
  37   22   46 1
  38   22   47 1
  39   22   48 1
  40   23   24 am
  41   23   49 1
  42   24   25 2
  43   24   26 am
  44   26   27 1
  45   26   50 1
  46   27   28 ar
  47   27   32 ar
  48   28   29 ar
  49   28   51 1
  50   29   30 ar
  51   29   33 1
  52   30   31 ar
  53   30   52 1
  54   31   32 ar
  55   31   53 1
  56   32   54 1
  57   35   36 1
  58   35   55 1
  59   35   56 1
  60   36   57 1
  61   36   58 1
  62   36   59 1

#	End of record

