#	Name: ASD01901583
#	Creating user name:	WinNT
#	Creation time:	15. 06. 2019 19:54

#	Modifying user name:	WinNT
#	Modification time:	15. 06. 2019 19:54

#	Program:	/corina/corina34_cracker 3.40 0067  02.08.2006

@<TRIPOS>MOLECULE
ASD01901583
  56   60    0    0    0
SMALL
NO_CHARGES


@<TRIPOS>ATOM
   1 C1            -0.0178     1.4608     0.0101 C.3     
   2 N2             0.0021    -0.0041     0.0020 N.am    
   3 C3             0.0055    -0.6618    -1.1702 C.2     
   4 O4             0.0981    -0.0313    -2.2051 O.2     
   5 N5            -0.0907    -2.0007    -1.2232 N.am    
   6 C6            -0.4262    -2.7194    -0.1365 C.2     
   7 O7            -0.4305    -3.9307    -0.1881 O.2     
   8 C8            -0.7967    -2.0173     1.1467 C.3     
   9 C9             0.0240    -0.7323     1.2675 C.3     
  10 C10           -0.5404     0.1482     2.3903 C.3     
  11 C11           -0.9611    -0.6914     3.5728 C.3     
  12 C12            0.1444    -1.2812     4.4125 C.3     
  13 C13            0.8394    -2.4390     3.6810 C.3     
  14 C14            1.8156    -1.8203     2.6941 C.2     
  15 N15            3.1559    -1.9111     2.7075 N.pl3   
  16 H16            3.6914    -2.3900     3.3592 H       
  17 N17            3.6409    -1.1874     1.6064 N.2     
  18 C18            2.6152    -0.6828     0.9629 C.2     
  19 C19            1.4575    -1.0707     1.6343 C.2     
  20 C20            0.1630    -2.6614    -2.4340 C.ar    
  21 C21           -0.8754    -2.8880    -3.3317 C.ar    
  22 F22           -2.1259    -2.4708    -3.0361 F       
  23 C23           -0.6296    -3.5378    -4.5240 C.ar    
  24 C24            0.6647    -3.9687    -4.8293 C.ar    
  25 C25            1.7056    -3.7394    -3.9249 C.ar    
  26 C26            1.4534    -3.0838    -2.7370 C.ar    
  27 F27            2.4599    -2.8569    -1.8648 F       
  28 C28            0.9236    -4.6438    -6.0653 C.1     
  29 C29            1.1358    -5.1973    -7.0787 C.1     
  30 C30            1.3947    -5.8724    -8.3147 C.ar    
  31 C31            0.3564    -6.0979    -9.2224 C.ar    
  32 C32            0.6133    -6.7488   -10.4109 C.ar    
  33 C33            1.8953    -7.1783   -10.7054 C.ar    
  34 C34            2.9284    -6.9589    -9.8113 C.ar    
  35 C35            2.6879    -6.3039    -8.6216 C.ar    
  36 H36            1.0048     1.8381     0.0023 H       
  37 H37           -0.5450     1.8219    -0.8730 H       
  38 H38           -0.5280     1.8123     0.9069 H       
  39 H39           -1.8594    -1.7751     1.1358 H       
  40 H40           -0.5790    -2.6677     1.9938 H       
  41 H41            0.2240     0.8574     2.7081 H       
  42 H42           -1.4040     0.6974     2.0153 H       
  43 H43           -1.5832    -0.0736     4.2204 H       
  44 H44           -1.5766    -1.5111     3.2021 H       
  45 H45            0.8783    -0.5059     4.6327 H       
  46 H46           -0.2756    -1.6504     5.3481 H       
  47 H47            1.3778    -3.0608     4.3963 H       
  48 H48            0.1013    -3.0382     3.1478 H       
  49 H49            2.6600    -0.0751     0.0712 H       
  50 H50           -1.4362    -3.7136    -5.2203 H       
  51 H51            2.7067    -4.0712    -4.1573 H       
  52 H52           -0.6448    -5.7636    -8.9937 H       
  53 H53           -0.1882    -6.9241   -11.1132 H       
  54 H54            2.0906    -7.6875   -11.6376 H       
  55 H55            3.9265    -7.2972   -10.0477 H       
  56 H56            3.4962    -6.1288    -7.9270 H       
@<TRIPOS>BOND
   1    1    2 1
   2    1   36 1
   3    1   37 1
   4    1   38 1
   5    2    9 1
   6    2    3 am
   7    3    4 2
   8    3    5 am
   9    5    6 am
  10    5   20 1
  11    6    7 2
  12    6    8 1
  13    8    9 1
  14    8   39 1
  15    8   40 1
  16    9   19 1
  17    9   10 1
  18   10   11 1
  19   10   41 1
  20   10   42 1
  21   11   12 1
  22   11   43 1
  23   11   44 1
  24   12   13 1
  25   12   45 1
  26   12   46 1
  27   13   14 1
  28   13   47 1
  29   13   48 1
  30   14   19 2
  31   14   15 1
  32   15   16 1
  33   15   17 1
  34   17   18 2
  35   18   19 1
  36   18   49 1
  37   20   26 ar
  38   20   21 ar
  39   21   22 1
  40   21   23 ar
  41   23   24 ar
  42   23   50 1
  43   24   25 ar
  44   24   28 1
  45   25   26 ar
  46   25   51 1
  47   26   27 1
  48   28   29 3
  49   29   30 1
  50   30   35 ar
  51   30   31 ar
  52   31   32 ar
  53   31   52 1
  54   32   33 ar
  55   32   53 1
  56   33   34 ar
  57   33   54 1
  58   34   35 ar
  59   34   55 1
  60   35   56 1

#	End of record

