#	Name: ASD03091674
#	Creating user name:	WinNT
#	Creation time:	15. 06. 2019 20:31

#	Modifying user name:	WinNT
#	Modification time:	15. 06. 2019 20:31

#	Program:	/corina/corina34_cracker 3.40 0067  02.08.2006

@<TRIPOS>MOLECULE
ASD03091674
  37   40    0    0    0
SMALL
NO_CHARGES


@<TRIPOS>ATOM
   1 C1            -0.0169     1.3960     0.0097 C.ar    
   2 C2             0.0021    -0.0041     0.0020 C.ar    
   3 C3             1.2297    -0.6779    -0.0133 C.ar    
   4 C4             2.3914     0.0652    -0.0204 C.ar    
   5 C5             2.3081     1.4519    -0.0122 C.ar    
   6 N6             1.1533     2.0657     0.0021 N.ar    
   7 C7            -1.3219     1.9148     0.0193 C.2     
   8 C8            -2.3044     1.0078     0.0194 C.2     
   9 S9            -1.6458    -0.6190     0.0144 S.3     
  10 C10           -3.7406     1.3295     0.0284 C.2     
  11 O11           -4.1037     2.4902     0.0366 O.2     
  12 N12           -4.6533     0.3378     0.0277 N.am    
  13 N13           -7.5972    -0.0888     1.8101 N.3     
  14 C14           -6.5487     0.8851     1.4778 C.3     
  15 C15           -6.0828     0.6580     0.0368 C.3     
  16 C16           -6.8752    -0.5112    -0.5612 C.3     
  17 C17           -8.3689    -0.1657    -0.5124 C.3     
  18 C18           -8.7716     0.0836     0.9438 C.3     
  19 C19           -7.0843    -1.4636     1.7332 C.3     
  20 C20           -6.6330    -1.7574     0.2998 C.3     
  21 H21            1.2659    -1.7573    -0.0191 H       
  22 H22            3.3539    -0.4247    -0.0318 H       
  23 H23            3.2167     2.0358    -0.0177 H       
  24 H24           -1.5189     2.9766     0.0264 H       
  25 H25           -4.3636    -0.5879     0.0212 H       
  26 H26           -6.9462     1.8952     1.5766 H       
  27 H27           -5.7057     0.7577     2.1569 H       
  28 H28           -6.2611     1.5585    -0.5509 H       
  29 H29           -6.5646    -0.6868    -1.5911 H       
  30 H30           -8.5555     0.7321    -1.1017 H       
  31 H31           -8.9492    -0.9960    -0.9147 H       
  32 H32           -9.5451    -0.6274     1.2341 H       
  33 H33           -9.1535     1.0993     1.0468 H       
  34 H34           -6.2378    -1.5744     2.4109 H       
  35 H35           -7.8716    -2.1620     2.0170 H       
  36 H36           -7.2063    -2.5941    -0.0994 H       
  37 H37           -5.5713    -2.0042     0.2945 H       
@<TRIPOS>BOND
   1    1    2 ar
   2    1    6 ar
   3    1    7 1
   4    2    3 ar
   5    2    9 1
   6    3    4 ar
   7    3   21 1
   8    4    5 ar
   9    4   22 1
  10    5    6 ar
  11    5   23 1
  12    7    8 2
  13    7   24 1
  14    8    9 1
  15    8   10 1
  16   10   11 2
  17   10   12 am
  18   12   15 1
  19   12   25 1
  20   13   14 1
  21   13   18 1
  22   13   19 1
  23   14   15 1
  24   14   26 1
  25   14   27 1
  26   15   16 1
  27   15   28 1
  28   16   17 1
  29   16   20 1
  30   16   29 1
  31   17   18 1
  32   17   30 1
  33   17   31 1
  34   18   32 1
  35   18   33 1
  36   19   20 1
  37   19   34 1
  38   19   35 1
  39   20   36 1
  40   20   37 1

#	End of record

