#	Name: ASD07300508
#	Creating user name:	WinNT
#	Creation time:	15. 06. 2019 21:09

#	Modifying user name:	WinNT
#	Modification time:	15. 06. 2019 21:09

#	Program:	/corina/corina34_cracker 3.40 0067  02.08.2006

@<TRIPOS>MOLECULE
ASD07300508
  28   30    0    0    0
SMALL
NO_CHARGES


@<TRIPOS>ATOM
   1 C1            -0.0168     1.3864     0.0097 C.ar    
   2 C2             0.0021    -0.0041     0.0020 C.ar    
   3 C3             1.2003    -0.6829    -0.0127 C.ar    
   4 C4             2.3767     0.0578    -0.0195 C.ar    
   5 C5             2.2970     1.4364    -0.0114 C.ar    
   6 N6             1.1336     2.0538     0.0023 N.ar    
   7 N7            -1.3308     1.8466     0.0303 N.am    
   8 C8            -1.4399    -0.4519     0.0134 C.3     
   9 C9            -2.2243     0.8432     0.0374 C.2     
  10 O10           -3.4319     0.9539     0.0547 O.2     
  11 C11           -1.6816     3.2025     0.0428 C.ar    
  12 C12           -3.0192     3.5750     0.0633 C.ar    
  13 C13           -3.3618     4.9129     0.0761 C.ar    
  14 C14           -2.3745     5.8811     0.0685 C.ar    
  15 C15           -1.0417     5.5134     0.0481 C.ar    
  16 C16           -0.6925     4.1771     0.0406 C.ar    
  17 N17           -2.7452     7.3141     0.0817 N.pl3   
  18 O18           -3.9189     7.6394     0.0992 O.2     
  19 O19           -1.8767     8.1679     0.0750 O.2     
  20 H20            1.2253    -1.7626    -0.0183 H       
  21 H21            3.3369    -0.4367    -0.0306 H       
  22 H22            3.2060     2.0195    -0.0162 H       
  23 H23           -1.6686    -1.0274    -0.8837 H       
  24 H24           -1.6515    -1.0370     0.9084 H       
  25 H25           -3.7907     2.8193     0.0689 H       
  26 H26           -4.4020     5.2032     0.0916 H       
  27 H27           -0.2729     6.2719     0.0418 H       
  28 H28            0.3487     3.8905     0.0288 H       
@<TRIPOS>BOND
   1    1    2 ar
   2    1    6 ar
   3    1    7 1
   4    2    3 ar
   5    2    8 1
   6    3    4 ar
   7    3   20 1
   8    4    5 ar
   9    4   21 1
  10    5    6 ar
  11    5   22 1
  12    7    9 am
  13    7   11 1
  14    8    9 1
  15    8   23 1
  16    8   24 1
  17    9   10 2
  18   11   12 ar
  19   11   16 ar
  20   12   13 ar
  21   12   25 1
  22   13   14 ar
  23   13   26 1
  24   14   15 ar
  25   14   17 1
  26   15   16 ar
  27   15   27 1
  28   16   28 1
  29   17   18 2
  30   17   19 2

#	End of record

