#	Name: ASD01901374
#	Creating user name:	WinNT
#	Creation time:	15. 06. 2019 19:53

#	Modifying user name:	WinNT
#	Modification time:	15. 06. 2019 19:53

#	Program:	/corina/corina34_cracker 3.40 0067  02.08.2006

@<TRIPOS>MOLECULE
ASD01901374
  42   45    0    0    0
SMALL
NO_CHARGES


@<TRIPOS>ATOM
   1 C1            -0.0169     1.3940     0.0097 C.ar    
   2 C2             1.1756     2.0982     0.0021 C.ar    
   3 C3             2.3811     1.4193    -0.0135 C.ar    
   4 C4             2.4024     0.0350    -0.0216 C.ar    
   5 C5             1.2203    -0.6781    -0.0137 C.ar    
   6 C6             0.0021    -0.0041     0.0020 C.ar    
   7 C7            -1.2710    -0.7664     0.0106 C.2     
   8 N8            -3.1795    -1.5369    -1.1466 N.2     
   9 C9            -2.0558    -0.8625    -1.1592 C.2     
  10 C10           -1.6977    -1.3902     1.1495 C.2     
  11 N11           -2.8725    -2.0824     1.1228 N.pl3   
  12 C12           -3.6088    -2.1473    -0.0319 C.2     
  13 C13           -3.5498    -2.7951     2.0751 C.2     
  14 C14           -4.6690    -3.2735     1.4912 C.2     
  15 N15           -4.6905    -2.8722     0.2168 N.2     
  16 C16           -5.7195    -4.1186     2.1646 C.3     
  17 O17           -5.3508    -4.3405     3.5273 O.3     
  18 C18           -6.1977    -5.0903     4.2815 C.ar    
  19 C19           -7.3560    -5.6061     3.7193 C.ar    
  20 C20           -5.9012    -5.3449     5.6124 C.ar    
  21 C21           -6.7624    -6.1074     6.3775 C.ar    
  22 C22           -7.9208    -6.6177     5.8164 C.ar    
  23 C23           -8.2155    -6.3682     4.4868 C.ar    
  24 F24           -8.7616    -7.3639     6.5656 F       
  25 O25           -1.2013     2.0595     0.0302 O.3     
  26 Cl26           3.8730     2.3068    -0.0236 Cl      
  27 C27           -1.1432     3.4873     0.0370 C.3     
  28 H28            1.1646     3.1781     0.0080 H       
  29 H29            3.3468    -0.4887    -0.0345 H       
  30 H30            1.2405    -1.7579    -0.0204 H       
  31 H31           -1.7291    -0.3782    -2.0676 H       
  32 H32           -1.1135    -1.3360     2.0563 H       
  33 H33           -3.2459    -2.9466     3.1004 H       
  34 H34           -6.6792    -3.6033     2.1271 H       
  35 H35           -5.8007    -5.0759     1.6497 H       
  36 H36           -7.5862    -5.4117     2.6822 H       
  37 H37           -4.9974    -4.9476     6.0501 H       
  38 H38           -6.5319    -6.3058     7.4138 H       
  39 H39           -9.1175    -6.7700     4.0493 H       
  40 H40           -0.6023     3.8247     0.9211 H       
  41 H41           -0.6278     3.8341    -0.8587 H       
  42 H42           -2.1551     3.8920     0.0536 H       
@<TRIPOS>BOND
   1    1    6 ar
   2    1    2 ar
   3    1   25 1
   4    2    3 ar
   5    2   28 1
   6    3    4 ar
   7    3   26 1
   8    4    5 ar
   9    4   29 1
  10    5    6 ar
  11    5   30 1
  12    6    7 1
  13    7   10 2
  14    7    9 1
  15    8    9 2
  16    8   12 1
  17    9   31 1
  18   10   11 1
  19   10   32 1
  20   11   13 1
  21   11   12 1
  22   12   15 2
  23   13   14 2
  24   13   33 1
  25   14   15 1
  26   14   16 1
  27   16   17 1
  28   16   34 1
  29   16   35 1
  30   17   18 1
  31   18   20 ar
  32   18   19 ar
  33   19   23 ar
  34   19   36 1
  35   20   21 ar
  36   20   37 1
  37   21   22 ar
  38   21   38 1
  39   22   23 ar
  40   22   24 1
  41   23   39 1
  42   25   27 1
  43   27   40 1
  44   27   41 1
  45   27   42 1

#	End of record

