#	Name: ASD04530013
#	Creating user name:	WinNT
#	Creation time:	15. 06. 2019 20:49

#	Modifying user name:	WinNT
#	Modification time:	15. 06. 2019 20:49

#	Program:	/corina/corina34_cracker 3.40 0067  02.08.2006

@<TRIPOS>MOLECULE
ASD04530013
  24   25    0    0    0
SMALL
NO_CHARGES


@<TRIPOS>ATOM
   1 C1            -0.0167     1.3780     0.0096 C.ar    
   2 C2             0.0021    -0.0041     0.0020 C.ar    
   3 C3             1.2114    -0.6860    -0.0128 C.ar    
   4 C4             2.4038     0.0182    -0.0204 C.ar    
   5 C5             2.3856     1.4114    -0.0132 C.ar    
   6 C6             1.1671     2.0883     0.0021 C.ar    
   7 C7             3.6588     2.1718    -0.0209 C.2     
   8 C8             3.6942     3.5153    -0.0144 C.2     
   9 S9             5.3808     4.0246    -0.0264 S.3     
  10 C10            5.8927     2.3399    -0.0393 C.2     
  11 N11            4.8481     1.5711    -0.0289 N.2     
  12 N12            7.2074     1.9032    -0.0528 N.pl3   
  13 O13            1.2250    -2.0450    -0.0193 O.3     
  14 C14           -0.0417    -2.7065    -0.0103 C.3     
  15 F15           -0.7712    -2.3324    -1.1439 F       
  16 F16            0.1555    -4.0915    -0.0187 F       
  17 F17           -0.7493    -2.3431     1.1405 F       
  18 H18           -0.9601     1.9037     0.0169 H       
  19 H19           -0.9267    -0.5551     0.0080 H       
  20 H20            3.3452    -0.5110    -0.0316 H       
  21 H21            1.1491     3.1681     0.0074 H       
  22 H22            2.8357     4.1705    -0.0040 H       
  23 H23            7.9325     2.5475    -0.0554 H       
  24 H24            7.4029     0.9531    -0.0596 H       
@<TRIPOS>BOND
   1    1    2 ar
   2    1    6 ar
   3    1   18 1
   4    2    3 ar
   5    2   19 1
   6    3    4 ar
   7    3   13 1
   8    4    5 ar
   9    4   20 1
  10    5    6 ar
  11    5    7 1
  12    6   21 1
  13    7    8 2
  14    7   11 1
  15    8    9 1
  16    8   22 1
  17    9   10 1
  18   10   11 2
  19   10   12 1
  20   12   23 1
  21   12   24 1
  22   13   14 1
  23   14   15 1
  24   14   16 1
  25   14   17 1

#	End of record

