#	Name: ASD01914636
#	Creating user name:	WinNT
#	Creation time:	15. 06. 2019 20:03

#	Modifying user name:	WinNT
#	Modification time:	15. 06. 2019 20:03

#	Program:	/corina/corina34_cracker 3.40 0067  02.08.2006

@<TRIPOS>MOLECULE
ASD01914636
  36   38    0    0    0
SMALL
NO_CHARGES


@<TRIPOS>ATOM
   1 N1            -0.0158     1.3157     0.0093 N.ar    
   2 C2             7.1865    -1.2915    -0.0730 C.2     
   3 N3             8.1073    -2.3015    -0.0866 N.pl3   
   4 C4             5.9569    -1.8823    -0.0641 C.2     
   5 N5             6.1459    -3.2258    -0.0723 N.2     
   6 C6             7.4241    -3.4772    -0.0856 C.2     
   7 C7             4.6945    -1.2064    -0.0489 C.1     
   8 C8             3.6596    -0.6523    -0.0364 C.1     
   9 C9             2.3972     0.0236    -0.0212 C.ar    
  10 C10            1.1940    -0.6962    -0.0131 C.ar    
  11 C11            0.0021    -0.0041     0.0020 C.ar    
  12 C12            1.0927     2.0325     0.0025 C.ar    
  13 C13            2.3292     1.4244    -0.0130 C.ar    
  14 C14            8.0455    -4.8501    -0.0988 C.3     
  15 C15            1.0047     3.5369     0.0115 C.3     
  16 C16            9.5012    -2.1525    -0.0996 C.ar    
  17 C17           10.1017    -1.3061    -1.0218 C.ar    
  18 C18           11.4752    -1.1614    -1.0322 C.ar    
  19 C19           12.2522    -1.8589    -0.1256 C.ar    
  20 C20           11.6570    -2.7026     0.7941 C.ar    
  21 C21           10.2834    -2.8467     0.8134 C.ar    
  22 H22            7.3925    -0.2314    -0.0660 H       
  23 H23            1.2009    -1.7762    -0.0190 H       
  24 H24           -0.9302    -0.5492     0.0084 H       
  25 H25            3.2319     2.0174    -0.0184 H       
  26 H26            8.1853    -5.1758    -1.1296 H       
  27 H27            9.0111    -4.8167     0.4057 H       
  28 H28            7.3896    -5.5508     0.4179 H       
  29 H29            0.9733     3.9051    -1.0140 H       
  30 H30            0.1002     3.8448     0.5360 H       
  31 H31            1.8770     3.9489     0.5189 H       
  32 H32            9.4954    -0.7617    -1.7306 H       
  33 H33           11.9429    -0.5032    -1.7494 H       
  34 H34           13.3261    -1.7447    -0.1361 H       
  35 H35           12.2664    -3.2463     1.5008 H       
  36 H36            9.8187    -3.5024     1.5349 H       
@<TRIPOS>BOND
   1    1   11 ar
   2    1   12 ar
   3    2    3 1
   4    2    4 2
   5    2   22 1
   6    3   16 1
   7    3    6 1
   8    4    5 1
   9    4    7 1
  10    5    6 2
  11    6   14 1
  12    7    8 3
  13    8    9 1
  14    9   10 ar
  15    9   13 ar
  16   10   11 ar
  17   10   23 1
  18   11   24 1
  19   12   13 ar
  20   12   15 1
  21   13   25 1
  22   14   26 1
  23   14   27 1
  24   14   28 1
  25   15   29 1
  26   15   30 1
  27   15   31 1
  28   16   17 ar
  29   16   21 ar
  30   17   18 ar
  31   17   32 1
  32   18   19 ar
  33   18   33 1
  34   19   20 ar
  35   19   34 1
  36   20   21 ar
  37   20   35 1
  38   21   36 1

#	End of record

