#	Name: ASD07300361
#	Creating user name:	WinNT
#	Creation time:	15. 06. 2019 21:09

#	Modifying user name:	WinNT
#	Modification time:	15. 06. 2019 21:09

#	Program:	/corina/corina34_cracker 3.40 0067  02.08.2006

@<TRIPOS>MOLECULE
ASD07300361
  52   56    0    0    0
SMALL
NO_CHARGES


@<TRIPOS>ATOM
   1 C1            -0.0293     1.3864     0.1051 C.ar    
   2 C2            -0.0120    -0.0107     0.1597 C.ar    
   3 C3             1.2031    -0.6778     0.1144 C.ar    
   4 C4             2.3628     0.0772     0.0157 C.ar    
   5 C5             2.2715     1.4555    -0.0339 C.ar    
   6 N6             1.1025     2.0646     0.0117 N.ar    
   7 C7            -2.1232     0.6629     0.2655 C.2     
   8 N8            -1.3638     1.7703     0.1736 N.am    
   9 N9            -1.3357    -0.4296     0.2548 N.am    
  10 O10           -3.3375     0.6505     0.3423 O.2     
  11 C11           -1.8388     3.0901     0.1512 C.ar    
  12 C12           -3.2026     3.3385     0.2269 C.ar    
  13 C13           -3.6698     4.6377     0.2053 C.ar    
  14 C14           -2.7764     5.6948     0.1080 C.ar    
  15 C15           -1.4133     5.4470     0.0318 C.ar    
  16 C16           -0.9450     4.1483     0.0591 C.ar    
  17 O17           -3.2368     6.9738     0.0868 O.3     
  18 C18           -4.5752     7.1668     0.0018 C.2     
  19 N19           -5.4746     6.2293    -0.1861 N.2     
  20 C20           -6.6914     6.7857    -0.2155 C.2     
  21 C21           -6.5507     8.1151    -0.0414 C.2     
  22 N22           -5.2139     8.3650     0.1030 N.pl3   
  23 C23           -8.0203     6.0960    -0.4047 C.3     
  24 C24           -9.1312     7.0520     0.0462 C.3     
  25 C25           -8.9299     8.4183    -0.6152 C.3     
  26 C26           -7.6924     9.0979    -0.0155 C.3     
  27 C27           -4.5888     9.6717     0.3222 C.3     
  28 C28           -1.7931    -1.8189     0.3372 C.3     
  29 C29           -1.8672    -2.2452     1.8047 C.3     
  30 H30            1.2454    -1.7562     0.1552 H       
  31 H31            3.3274    -0.4071    -0.0218 H       
  32 H32            3.1737     2.0443    -0.1104 H       
  33 H33           -3.8981     2.5157     0.3024 H       
  34 H34           -4.7307     4.8310     0.2639 H       
  35 H35           -0.7183     6.2701    -0.0443 H       
  36 H36            0.1163     3.9557     0.0043 H       
  37 H37           -8.1568     5.8458    -1.4568 H       
  38 H38           -8.0510     5.1883     0.1979 H       
  39 H39          -10.0999     6.6464    -0.2455 H       
  40 H40           -9.0960     7.1643     1.1298 H       
  41 H41           -8.7878     8.2855    -1.6877 H       
  42 H42           -9.8075     9.0403    -0.4389 H       
  43 H43           -7.8985     9.3941     1.0130 H       
  44 H44           -7.4337     9.9767    -0.6063 H       
  45 H45           -4.3505    10.1264    -0.6393 H       
  46 H46           -5.2770    10.3167     0.8685 H       
  47 H47           -3.6737     9.5443     0.9006 H       
  48 H48           -2.7808    -1.9037    -0.1161 H       
  49 H49           -1.0931    -2.4640    -0.1937 H       
  50 H50           -0.8796    -2.1603     2.2580 H       
  51 H51           -2.5673    -1.6001     2.3356 H       
  52 H52           -2.2076    -3.2789     1.8661 H       
@<TRIPOS>BOND
   1    1    2 ar
   2    1    6 ar
   3    1    8 1
   4    2    3 ar
   5    2    9 1
   6    3    4 ar
   7    3   30 1
   8    4    5 ar
   9    4   31 1
  10    5    6 ar
  11    5   32 1
  12    7    8 am
  13    7    9 am
  14    7   10 2
  15    8   11 1
  16    9   28 1
  17   11   12 ar
  18   11   16 ar
  19   12   13 ar
  20   12   33 1
  21   13   14 ar
  22   13   34 1
  23   14   15 ar
  24   14   17 1
  25   15   16 ar
  26   15   35 1
  27   16   36 1
  28   17   18 1
  29   18   19 2
  30   18   22 1
  31   19   20 1
  32   20   21 2
  33   20   23 1
  34   21   22 1
  35   21   26 1
  36   22   27 1
  37   23   24 1
  38   23   37 1
  39   23   38 1
  40   24   25 1
  41   24   39 1
  42   24   40 1
  43   25   26 1
  44   25   41 1
  45   25   42 1
  46   26   43 1
  47   26   44 1
  48   27   45 1
  49   27   46 1
  50   27   47 1
  51   28   29 1
  52   28   48 1
  53   28   49 1
  54   29   50 1
  55   29   51 1
  56   29   52 1

#	End of record

