#	Name: ASD01911400
#	Creating user name:	WinNT
#	Creation time:	15. 06. 2019 19:57

#	Modifying user name:	WinNT
#	Modification time:	15. 06. 2019 19:57

#	Program:	/corina/corina34_cracker 3.40 0067  02.08.2006

@<TRIPOS>MOLECULE
ASD01911400
  41   42    0    0    0
SMALL
NO_CHARGES


@<TRIPOS>ATOM
   1 N1            -0.0169     1.3965     0.0097 N.2     
   2 N2             0.0021    -0.0041     0.0020 N.pl3   
   3 C3             1.2284     1.8226     0.0001 C.2     
   4 C4             2.0723     0.6949    -0.0140 C.2     
   5 C5             1.2908    -0.4070    -0.0125 C.2     
   6 C6             1.7726    -1.8349    -0.0247 C.3     
   7 C7             1.6661     3.2407     0.0028 C.ar    
   8 C8             3.0191     3.5540    -0.1140 C.ar    
   9 C9            -1.1724    -0.8798     0.0090 C.3     
  10 C10           -1.5888    -1.1729    -1.4094 C.2     
  11 O11           -2.6491    -1.9605    -1.6484 O.3     
  12 O12           -0.9682    -0.6990    -2.3314 O.2     
  13 C13            3.4228     4.8726    -0.1117 C.ar    
  14 C14            2.4829     5.8876     0.0073 C.ar    
  15 C15            1.1349     5.5785     0.1243 C.ar    
  16 C16            0.7246     4.2615     0.1163 C.ar    
  17 O17            2.8837     7.1860     0.0098 O.3     
  18 C18            0.1178     6.6830     0.2537 C.3     
  19 C19            3.0470    -1.9359    -0.8654 C.3     
  20 C20            2.0691    -2.2854     1.4071 C.3     
  21 C21            4.2859     7.4324    -0.1137 C.3     
  22 H22            3.1521     0.7088    -0.0248 H       
  23 H23            1.0020    -2.4747    -0.4547 H       
  24 H24            3.7507     2.7649    -0.2059 H       
  25 H25           -0.9268    -1.8130     0.5158 H       
  26 H26           -1.9906    -0.3861     0.5332 H       
  27 H27           -2.8779    -2.1197    -2.5744 H       
  28 H28            4.4711     5.1160    -0.2021 H       
  29 H29           -0.3245     4.0216     0.2070 H       
  30 H30           -0.2233     6.9809    -0.7377 H       
  31 H31           -0.7309     6.3287     0.8388 H       
  32 H32            0.5721     7.5384     0.7538 H       
  33 H33            3.8176    -1.2961    -0.4354 H       
  34 H34            3.3954    -2.9687    -0.8742 H       
  35 H35            2.8358    -1.6149    -1.8854 H       
  36 H36            1.1612    -2.2134     2.0060 H       
  37 H37            2.4176    -3.3182     1.3982 H       
  38 H38            2.8397    -1.6456     1.8371 H       
  39 H39            4.4687     8.5068    -0.0977 H       
  40 H40            4.8120     6.9620     0.7170 H       
  41 H41            4.6464     7.0164    -1.0544 H       
@<TRIPOS>BOND
   1    1    2 1
   2    1    3 2
   3    2    9 1
   4    2    5 1
   5    3    4 1
   6    3    7 1
   7    4    5 2
   8    4   22 1
   9    5    6 1
  10    6   19 1
  11    6   20 1
  12    6   23 1
  13    7    8 ar
  14    7   16 ar
  15    8   13 ar
  16    8   24 1
  17    9   10 1
  18    9   25 1
  19    9   26 1
  20   10   11 1
  21   10   12 2
  22   11   27 1
  23   13   14 ar
  24   13   28 1
  25   14   15 ar
  26   14   17 1
  27   15   16 ar
  28   15   18 1
  29   16   29 1
  30   17   21 1
  31   18   30 1
  32   18   31 1
  33   18   32 1
  34   19   33 1
  35   19   34 1
  36   19   35 1
  37   20   36 1
  38   20   37 1
  39   20   38 1
  40   21   39 1
  41   21   40 1
  42   21   41 1

#	End of record

