#	Name: ASD01900575
#	Creating user name:	WinNT
#	Creation time:	15. 06. 2019 19:52

#	Modifying user name:	WinNT
#	Modification time:	15. 06. 2019 19:52

#	Program:	/corina/corina34_cracker 3.40 0067  02.08.2006

@<TRIPOS>MOLECULE
ASD01900575
  39   42    0    0    0
SMALL
NO_CHARGES


@<TRIPOS>ATOM
   1 S1            -0.7369    -1.4836     1.1686 S.3     
   2 C2            -0.0736    -0.3401     0.0875 C.2     
   3 N3             1.1985    -0.5014    -0.0162 N.2     
   4 C4             1.7198    -1.4909     0.7138 C.2     
   5 C5             0.8059    -2.1642     1.4486 C.2     
   6 C6             3.1553    -1.8186     0.7174 C.2     
   7 O7             3.5686    -2.7333     1.4046 O.2     
   8 N8             4.0113    -1.1052    -0.0407 N.am    
   9 C9             5.3870    -1.3520     0.0361 C.ar    
  10 C10            5.8506    -2.6472     0.2283 C.ar    
  11 C11            7.2081    -2.8902     0.3041 C.ar    
  12 C12            8.1095    -1.8389     0.1881 C.ar    
  13 C13            7.6455    -0.5450    -0.0035 C.ar    
  14 C14            6.2885    -0.3027    -0.0854 C.ar    
  15 O15           13.4008    -4.0578     0.3089 O.3     
  16 C16           12.2757    -3.8589    -0.5543 C.3     
  17 C17           11.6751    -2.4808    -0.2558 C.3     
  18 N18           11.4658    -2.4204     1.2092 N.am    
  19 C19           12.5132    -2.7793     2.1700 C.3     
  20 C20           13.1021    -4.1220     1.7037 C.3     
  21 C21           10.1957    -2.0676     1.4062 C.2     
  22 N22            9.4889    -2.0855     0.2651 N.am    
  23 C23           10.2693    -2.3709    -0.7997 C.2     
  24 S24            9.5440    -1.6432     2.9314 S.2     
  25 O25            9.9159    -2.5099    -1.9512 O.2     
  26 Cl26           7.7882    -4.5086     0.5449 Cl      
  27 H27           -0.6429     0.4133    -0.4365 H       
  28 H28            1.0164    -2.9956     2.1051 H       
  29 H29            3.6741    -0.4207    -0.6396 H       
  30 H30            5.1498    -3.4639     0.3188 H       
  31 H31            8.3461     0.2720    -0.0933 H       
  32 H32            5.9281     0.7036    -0.2397 H       
  33 H33           12.5990    -3.9010    -1.5944 H       
  34 H34           11.5301    -4.6322    -0.3695 H       
  35 H35           12.3223    -1.6766    -0.6058 H       
  36 H36           13.2897    -2.0144     2.1778 H       
  37 H37           12.0842    -2.8864     3.1663 H       
  38 H38           12.3787    -4.9173     1.8835 H       
  39 H39           14.0154    -4.3306     2.2610 H       
@<TRIPOS>BOND
   1    1    2 1
   2    1    5 1
   3    2    3 2
   4    2   27 1
   5    3    4 1
   6    4    5 2
   7    4    6 1
   8    5   28 1
   9    6    7 2
  10    6    8 am
  11    8    9 1
  12    8   29 1
  13    9   10 ar
  14    9   14 ar
  15   10   11 ar
  16   10   30 1
  17   11   12 ar
  18   11   26 1
  19   12   13 ar
  20   12   22 1
  21   13   14 ar
  22   13   31 1
  23   14   32 1
  24   15   16 1
  25   15   20 1
  26   16   17 1
  27   16   33 1
  28   16   34 1
  29   17   18 1
  30   17   23 1
  31   17   35 1
  32   18   19 1
  33   18   21 am
  34   19   20 1
  35   19   36 1
  36   19   37 1
  37   20   38 1
  38   20   39 1
  39   21   22 am
  40   21   24 2
  41   22   23 am
  42   23   25 2

#	End of record

