#	Name: ASD09116321
#	Creating user name:	WinNT
#	Creation time:	15. 06. 2019 21:21

#	Modifying user name:	WinNT
#	Modification time:	15. 06. 2019 21:21

#	Program:	/corina/corina34_cracker 3.40 0067  02.08.2006

@<TRIPOS>MOLECULE
ASD09116321
  79   85    0    0    0
SMALL
NO_CHARGES


@<TRIPOS>ATOM
   1 N1            -0.0591     1.5279    -0.5291 N.2     
   2 N2            -0.0823     0.2494    -1.1093 N.pl3   
   3 C3             1.1948     1.9116    -0.4984 C.2     
   4 N4             1.9588     0.9478    -1.0257 N.2     
   5 C5             1.2027    -0.0623    -1.3992 C.2     
   6 N6             1.6428    -1.2344    -1.9845 N.pl3   
   7 C7            -1.2081    -0.5436    -1.3413 C.ar    
   8 N8             1.6573     3.1283     0.0030 N.pl3   
   9 C9             3.0333     3.3745     0.0839 C.ar    
  10 C10            3.5138     4.6735    -0.0230 C.ar    
  11 C11            3.9168     2.3210     0.2767 C.ar    
  12 C12            5.2747     2.5631     0.3571 C.ar    
  13 C13            5.7566     3.8594     0.2456 C.ar    
  14 C14            4.8720     4.9162     0.0573 C.ar    
  15 N15           -1.1869    -1.4604    -2.2967 N.ar    
  16 N16           -2.1978    -2.2108    -2.5582 N.ar    
  17 C17           -3.3297    -2.1088    -1.8816 C.ar    
  18 C18           -3.4374    -1.1779    -0.8399 C.ar    
  19 C19           -2.3556    -0.3736    -0.5612 C.ar    
  20 C20           -4.5161    -2.9322    -2.2008 C.ar    
  21 C21           -5.7626    -2.3001    -2.3407 C.ar    
  22 N22           -5.8408    -0.9157    -2.2368 N.3     
  23 C23           -5.8067    -0.4252    -0.8601 C.3     
  24 C24           -4.7124    -1.1087    -0.0472 C.3     
  25 C25           -4.4172    -4.3093    -2.3576 C.ar    
  26 C26           -5.5496    -5.0521    -2.6298 C.ar    
  27 C27           -6.7812    -4.4313    -2.7445 C.ar    
  28 C28           -6.8910    -3.0611    -2.6001 C.ar    
  29 N29            7.1340     4.1045     0.3277 N.3     
  30 C30            7.6715     3.6621     1.6218 C.3     
  31 C31            9.1872     3.8734     1.6408 C.3     
  32 N32            9.4841     5.2938     1.4084 N.3     
  33 C33            8.9466     5.7362     0.1142 C.3     
  34 C34            7.4308     5.5249     0.0952 C.3     
  35 C35           10.9279     5.5507     1.4944 C.3     
  36 C36           -7.0165    -0.3997    -2.9505 C.3     
  37 C37           11.2093     7.0086     1.1253 C.3     
  38 C38           12.7130     7.2762     1.2149 C.3     
  39 C39           13.1944     7.0095     2.6425 C.3     
  40 C40           12.9130     5.5516     3.0115 C.3     
  41 C41           11.4092     5.2840     2.9220 C.3     
  42 F42            5.3406     6.1786    -0.0513 F       
  43 H43            2.5886    -1.3664    -2.1542 H       
  44 H44            1.0058    -1.9250    -2.2256 H       
  45 H45            1.0257     3.8038     0.2957 H       
  46 H46            2.8263     5.4935    -0.1692 H       
  47 H47            3.5423     1.3118     0.3642 H       
  48 H48            5.9613     1.7430     0.5071 H       
  49 H49           -2.3948     0.3663     0.2246 H       
  50 H50           -5.6241     0.6494    -0.8697 H       
  51 H51           -6.7713    -0.6168    -0.3901 H       
  52 H52           -5.0320    -2.1185     0.2105 H       
  53 H53           -4.5374    -0.5441     0.8686 H       
  54 H54           -3.4580    -4.7973    -2.2674 H       
  55 H55           -5.4735    -6.1222    -2.7539 H       
  56 H56           -7.6624    -5.0215    -2.9482 H       
  57 H57           -7.8557    -2.5839    -2.6898 H       
  58 H58            7.2134     4.2418     2.4232 H       
  59 H59            7.4499     2.6045     1.7652 H       
  60 H60            9.5841     3.5728     2.6105 H       
  61 H61            9.6480     3.2725     0.8568 H       
  62 H62            9.1681     6.7938    -0.0292 H       
  63 H63            9.4046     5.1565    -0.6872 H       
  64 H64            7.0339     5.8255    -0.8744 H       
  65 H65            6.9701     6.1258     0.8793 H       
  66 H66           11.4558     4.8928     0.8041 H       
  67 H67           -7.9147    -0.8864    -2.5705 H       
  68 H68           -7.0928     0.6764    -2.7947 H       
  69 H69           -6.9144    -0.6063    -4.0158 H       
  70 H70           10.8664     7.1987     0.1083 H       
  71 H71           10.6814     7.6666     1.8156 H       
  72 H72           13.2409     6.6183     0.5246 H       
  73 H73           12.9135     8.3149     0.9519 H       
  74 H74           14.2657     7.2002     2.7063 H       
  75 H75           12.6665     7.6675     3.3328 H       
  76 H76           13.4409     4.8936     2.3212 H       
  77 H77           13.2559     5.3616     4.0286 H       
  78 H78           10.8813     5.9419     3.6123 H       
  79 H79           11.2087     4.2453     3.1849 H       
@<TRIPOS>BOND
   1    1    2 1
   2    1    3 2
   3    2    7 1
   4    2    5 1
   5    3    4 1
   6    3    8 1
   7    4    5 2
   8    5    6 1
   9    6   43 1
  10    6   44 1
  11    7   15 ar
  12    7   19 ar
  13    8    9 1
  14    8   45 1
  15    9   10 ar
  16    9   11 ar
  17   10   14 ar
  18   10   46 1
  19   11   12 ar
  20   11   47 1
  21   12   13 ar
  22   12   48 1
  23   13   14 ar
  24   13   29 1
  25   14   42 1
  26   15   16 ar
  27   16   17 ar
  28   17   18 ar
  29   17   20 1
  30   18   19 ar
  31   18   24 1
  32   19   49 1
  33   20   21 ar
  34   20   25 ar
  35   21   22 1
  36   21   28 ar
  37   22   23 1
  38   22   36 1
  39   23   24 1
  40   23   50 1
  41   23   51 1
  42   24   52 1
  43   24   53 1
  44   25   26 ar
  45   25   54 1
  46   26   27 ar
  47   26   55 1
  48   27   28 ar
  49   27   56 1
  50   28   57 1
  51   29   30 1
  52   29   34 1
  53   30   31 1
  54   30   58 1
  55   30   59 1
  56   31   32 1
  57   31   60 1
  58   31   61 1
  59   32   33 1
  60   32   35 1
  61   33   34 1
  62   33   62 1
  63   33   63 1
  64   34   64 1
  65   34   65 1
  66   35   37 1
  67   35   41 1
  68   35   66 1
  69   36   67 1
  70   36   68 1
  71   36   69 1
  72   37   38 1
  73   37   70 1
  74   37   71 1
  75   38   39 1
  76   38   72 1
  77   38   73 1
  78   39   40 1
  79   39   74 1
  80   39   75 1
  81   40   41 1
  82   40   76 1
  83   40   77 1
  84   41   78 1
  85   41   79 1

#	End of record

