#	Name: ASD04590690
#	Creating user name:	WinNT
#	Creation time:	15. 06. 2019 20:51

#	Modifying user name:	WinNT
#	Modification time:	15. 06. 2019 20:51

#	Program:	/corina/corina34_cracker 3.40 0067  02.08.2006

@<TRIPOS>MOLECULE
ASD04590690
  77   82    0    0    0
SMALL
NO_CHARGES


@<TRIPOS>ATOM
   1 N1            -2.3304    -2.6829    -0.4343 N.ar    
   2 C2            -1.1796    -2.0506    -0.2428 C.ar    
   3 N3            -0.0156    -2.6794    -0.2614 N.ar    
   4 C4             0.0421    -3.9905    -0.4761 C.ar    
   5 C5            -1.1633    -4.6912    -0.6827 C.ar    
   6 C6            -2.3628    -3.9868    -0.6545 C.ar    
   7 N7             1.0810    -4.8847    -0.5483 N.pl3   
   8 C8             0.6037    -6.1607    -0.7969 C.ar    
   9 C9            -0.7966    -6.0979    -0.8904 C.ar    
  10 N10           -1.1975    -0.6843    -0.0159 N.pl3   
  11 C11           -2.3987     0.0201    -0.0952 C.ar    
  12 C12            2.4951    -4.5380    -0.3862 C.3     
  13 C13            2.9133    -3.5154    -1.4573 C.3     
  14 C14            1.2226    -7.3973    -0.9575 C.ar    
  15 N15            0.5031    -8.4780    -1.1914 N.ar    
  16 C16           -0.8152    -8.4450    -1.2838 C.ar    
  17 C17           -1.5062    -7.2734    -1.1398 C.ar    
  18 C18            3.3773    -2.2522    -0.7032 C.3     
  19 C19            3.7863    -2.7742     0.6966 C.3     
  20 C20            2.7196    -3.8604     0.9814 C.3     
  21 N21           -3.4969    -0.6021    -0.4924 N.ar    
  22 C22           -4.6549     0.0241    -0.5819 C.ar    
  23 C23           -4.7607     1.3687    -0.2594 C.ar    
  24 C24           -3.6247     2.0576     0.1631 C.ar    
  25 C25           -2.4298     1.3669     0.2497 C.ar    
  26 N26           -5.9927     2.0262    -0.3574 N.3     
  27 F27            2.5678    -7.4911    -0.8737 F       
  28 C28           -5.8144     3.4179    -0.8106 C.3     
  29 C29           -6.6620     3.5948    -2.0880 C.3     
  30 C30           -7.7170     2.4639    -1.9669 C.3     
  31 C31           -6.8891     1.3330    -1.3070 C.3     
  32 O32           -8.1914     2.0663    -3.2548 O.3     
  33 Si33          -9.5173     2.8755    -3.7523 Si      
  34 C34          -10.0247     2.2606    -5.4361 C.3     
  35 C35          -10.9067     2.5937    -2.5437 C.3     
  36 C36           -9.1349     4.6965    -3.8454 C.3     
  37 C37          -10.3387     0.7652    -5.3597 C.3     
  38 C38          -11.2684     3.0197    -5.9028 C.3     
  39 C39           -8.8836     2.4921    -6.4288 C.3     
  40 H40           -3.3030    -4.4953    -0.8089 H       
  41 H41           -0.3747    -0.2174     0.1981 H       
  42 H42            3.1104    -5.4342    -0.4652 H       
  43 H43            3.7321    -3.9151    -2.0555 H       
  44 H44            2.0641    -3.2771    -2.0977 H       
  45 H45           -1.3564    -9.3595    -1.4767 H       
  46 H46           -2.5833    -7.2584    -1.2173 H       
  47 H47            4.2319    -1.7999    -1.2063 H       
  48 H48            2.5599    -1.5360    -0.6194 H       
  49 H49            4.7847    -3.2108     0.6695 H       
  50 H50            3.7325    -1.9763     1.4373 H       
  51 H51            1.7959    -3.4040     1.3373 H       
  52 H52            3.0942    -4.5818     1.7076 H       
  53 H53           -5.5303    -0.5165    -0.9104 H       
  54 H54           -3.6775     3.1052     0.4204 H       
  55 H55           -1.5302     1.8692     0.5737 H       
  56 H56           -6.1587     4.1062    -0.0388 H       
  57 H57           -4.7638     3.6033    -1.0341 H       
  58 H58           -7.1442     4.5723    -2.0982 H       
  59 H59           -6.0496     3.4568    -2.9791 H       
  60 H60           -8.5436     2.7682    -1.3248 H       
  61 H61           -6.3067     0.8008    -2.0591 H       
  62 H62           -7.5448     0.6434    -0.7755 H       
  63 H63          -10.6098     2.9534    -1.5585 H       
  64 H64          -11.7928     3.1345    -2.8761 H       
  65 H65          -11.1304     1.5283    -2.4892 H       
  66 H66           -8.3220     4.8613    -4.5525 H       
  67 H67          -10.0210     5.2372    -4.1778 H       
  68 H68           -8.8380     5.0562    -2.8602 H       
  69 H69          -11.1516     0.6003    -4.6526 H       
  70 H70          -10.6355     0.4054    -6.3449 H       
  71 H71           -9.4526     0.2244    -5.0272 H       
  72 H72          -11.0447     4.0851    -5.9573 H       
  73 H73          -11.5653     2.6600    -6.8880 H       
  74 H74          -12.0813     2.8548    -5.1957 H       
  75 H75           -7.9975     1.9513    -6.0963 H       
  76 H76           -9.1804     2.1323    -7.4139 H       
  77 H77           -8.6599     3.5575    -6.4832 H       
@<TRIPOS>BOND
   1    1    2 ar
   2    1    6 ar
   3    2    3 ar
   4    2   10 1
   5    3    4 ar
   6    4    5 ar
   7    4    7 1
   8    5    6 ar
   9    5    9 1
  10    6   40 1
  11    7    8 1
  12    7   12 1
  13    8    9 ar
  14    8   14 ar
  15    9   17 ar
  16   10   11 1
  17   10   41 1
  18   11   21 ar
  19   11   25 ar
  20   12   13 1
  21   12   20 1
  22   12   42 1
  23   13   18 1
  24   13   43 1
  25   13   44 1
  26   14   15 ar
  27   14   27 1
  28   15   16 ar
  29   16   17 ar
  30   16   45 1
  31   17   46 1
  32   18   19 1
  33   18   47 1
  34   18   48 1
  35   19   20 1
  36   19   49 1
  37   19   50 1
  38   20   51 1
  39   20   52 1
  40   21   22 ar
  41   22   23 ar
  42   22   53 1
  43   23   24 ar
  44   23   26 1
  45   24   25 ar
  46   24   54 1
  47   25   55 1
  48   26   28 1
  49   26   31 1
  50   28   29 1
  51   28   56 1
  52   28   57 1
  53   29   30 1
  54   29   58 1
  55   29   59 1
  56   30   31 1
  57   30   32 1
  58   30   60 1
  59   31   61 1
  60   31   62 1
  61   32   33 1
  62   33   34 1
  63   33   35 1
  64   33   36 1
  65   34   37 1
  66   34   38 1
  67   34   39 1
  68   35   63 1
  69   35   64 1
  70   35   65 1
  71   36   66 1
  72   36   67 1
  73   36   68 1
  74   37   69 1
  75   37   70 1
  76   37   71 1
  77   38   72 1
  78   38   73 1
  79   38   74 1
  80   39   75 1
  81   39   76 1
  82   39   77 1

#	End of record

