#	Name: ASD07930356
#	Creating user name:	WinNT
#	Creation time:	15. 06. 2019 21:12

#	Modifying user name:	WinNT
#	Modification time:	15. 06. 2019 21:12

#	Program:	/corina/corina34_cracker 3.40 0067  02.08.2006

@<TRIPOS>MOLECULE
ASD07930356
  48   49    0    0    0
SMALL
NO_CHARGES


@<TRIPOS>ATOM
   1 N1            -0.0178     1.4625     0.0101 N.pl3   
   2 C2             0.0021    -0.0041     0.0020 C.3     
   3 C3             0.7718    -0.5048     1.2325 C.3     
   4 N4             2.0919     1.8640     0.9683 N.am    
   5 C5             1.1578     2.1624     0.0026 C.2     
   6 C6            -1.4106    -0.5271     0.0446 C.ar    
   7 C7            -2.2900    -0.1997    -0.9696 C.ar    
   8 C8             2.7573     2.9137     1.7441 C.3     
   9 C9             0.6936    -0.4990    -1.2699 C.3     
  10 N10           -1.7905    -1.2962     1.0472 N.ar    
  11 C11           -3.0212    -1.7783     1.1251 C.ar    
  12 C12           -3.9604    -1.4851     0.1420 C.ar    
  13 C13           -3.5908    -0.6854    -0.9247 C.ar    
  14 N14           -3.3781    -2.5856     2.1997 N.pl3   
  15 Cl15          -1.7750     0.8083    -2.2857 Cl      
  16 S16            2.4285     0.2504     1.2124 S.o2    
  17 O17            3.0216     0.2000     2.5027 O.2     
  18 O18            3.1487    -0.1441     0.0527 O.2     
  19 N19            1.3899     3.0974    -0.9057 N.2     
  20 O20            0.7033     4.3237    -2.7615 O.3     
  21 C21           -0.3257     4.5630    -3.7237 C.3     
  22 C22           -1.6051     4.9964    -3.0051 C.3     
  23 C23            0.1200     5.6685    -4.6828 C.3     
  24 C24           -0.5939     3.2802    -4.5133 C.3     
  25 C25            0.4668     3.3707    -1.8357 C.2     
  26 O26           -0.5860     2.7597    -1.8463 O.2     
  27 H27           -0.8643     1.9361     0.0167 H       
  28 H28            0.2449    -0.2114     2.1405 H       
  29 H29            0.8620    -1.5903     1.1933 H       
  30 H30            2.3906     3.8892     1.4247 H       
  31 H31            2.5426     2.7739     2.8035 H       
  32 H32            3.8336     2.8589     1.5811 H       
  33 H33            1.7160    -0.1220    -1.2978 H       
  34 H34            0.7080    -1.5889    -1.2751 H       
  35 H35            0.1496    -0.1386    -2.1430 H       
  36 H36           -4.9635    -1.8798     0.2083 H       
  37 H37           -4.2987    -0.4410    -1.7029 H       
  38 H38           -2.7266    -2.7932     2.8878 H       
  39 H39           -4.2785    -2.9412     2.2613 H       
  40 H40           -1.4140     5.9103    -2.4425 H       
  41 H41           -2.3900     5.1789    -3.7390 H       
  42 H42           -1.9226     4.2088    -2.3218 H       
  43 H43            1.0314     5.3598    -5.1948 H       
  44 H44           -0.6650     5.8511    -5.4168 H       
  45 H45            0.3110     6.5824    -4.1203 H       
  46 H46           -0.9114     2.4926    -3.8300 H       
  47 H47           -1.3788     3.4628    -5.2472 H       
  48 H48            0.3175     2.9715    -5.0252 H       
@<TRIPOS>BOND
   1    1    2 1
   2    1    5 1
   3    1   27 1
   4    2    3 1
   5    2    6 1
   6    2    9 1
   7    3   16 1
   8    3   28 1
   9    3   29 1
  10    4    5 1
  11    4    8 1
  12    4   16 am
  13    5   19 2
  14    6   10 ar
  15    6    7 ar
  16    7   15 1
  17    7   13 ar
  18    8   30 1
  19    8   31 1
  20    8   32 1
  21    9   33 1
  22    9   34 1
  23    9   35 1
  24   10   11 ar
  25   11   12 ar
  26   11   14 1
  27   12   13 ar
  28   12   36 1
  29   13   37 1
  30   14   38 1
  31   14   39 1
  32   16   17 2
  33   16   18 2
  34   19   25 1
  35   20   21 1
  36   20   25 1
  37   21   22 1
  38   21   23 1
  39   21   24 1
  40   22   40 1
  41   22   41 1
  42   22   42 1
  43   23   43 1
  44   23   44 1
  45   23   45 1
  46   24   46 1
  47   24   47 1
  48   24   48 1
  49   25   26 2

#	End of record

