#	Name: ASD06170219
#	Creating user name:	WinNT
#	Creation time:	15. 06. 2019 21:05

#	Modifying user name:	WinNT
#	Modification time:	15. 06. 2019 21:05

#	Program:	/corina/corina34_cracker 3.40 0067  02.08.2006

@<TRIPOS>MOLECULE
ASD06170219
  73   78    0    0    0
SMALL
NO_CHARGES


@<TRIPOS>ATOM
   1 C1            -0.0759     1.4636     0.0163 C.2     
   2 C2            -0.1483     0.1777    -0.5708 C.2     
   3 C3             1.0368    -0.4199    -1.0352 C.2     
   4 C4             2.2473     0.2835    -0.8981 C.2     
   5 C5             2.2557     1.5091    -0.3290 C.2     
   6 N6             1.1121     2.0879     0.1201 N.am    
   7 C7            -1.4332    -0.5174    -0.6919 C.2     
   8 O8            -1.5105    -1.5450    -1.3394 O.2     
   9 N9            -2.5290    -0.0185    -0.0861 N.am    
  10 N10            1.0129    -1.6697    -1.6126 N.pl3   
  11 C11            1.8916    -3.2256    -4.8221 C.ar    
  12 C12            1.4380    -3.0976    -3.5259 C.ar    
  13 C13            1.4625    -1.8417    -2.9204 C.ar    
  14 C14            1.9483    -0.7624    -3.6577 C.ar    
  15 C15            2.3835    -0.9747    -4.9492 C.ar    
  16 N16            2.3441    -2.1792    -5.4871 N.ar    
  17 O17           -1.0887     2.0071     0.4227 O.2     
  18 C18           -3.7700    -0.6248    -0.2800 C.ar    
  19 C19           -3.8302    -1.9498    -0.6975 C.ar    
  20 C20           -5.0660    -2.5412    -0.8867 C.ar    
  21 C21           -6.2088    -1.7809    -0.6499 C.ar    
  22 C22           -6.0719    -0.4659    -0.2353 C.ar    
  23 N23           -4.8771     0.0655    -0.0594 N.ar    
  24 O24           -7.4437    -2.3224    -0.8239 O.3     
  25 N25           -8.7653    -5.0242     1.9983 N.ar    
  26 C26           -7.6461    -4.3657     2.1882 C.ar    
  27 C27           -7.1698    -3.4478     1.2607 C.ar    
  28 C28           -7.8844    -3.2123     0.0993 C.ar    
  29 C29           -9.0877    -3.9273    -0.0947 C.ar    
  30 C30           -9.8662    -3.7425    -1.2470 C.ar    
  31 C31          -11.0228    -4.4507    -1.4015 C.ar    
  32 C32          -11.4407    -5.3604    -0.4198 C.ar    
  33 C33          -10.7021    -5.5593     0.7109 C.ar    
  34 C34           -9.5068    -4.8457     0.8985 C.ar    
  35 O35          -12.5964    -6.0531    -0.5960 O.3     
  36 C36          -12.9702    -6.9654     0.4384 C.3     
  37 O37          -11.7776    -4.2718    -2.5184 O.3     
  38 C38          -11.2986    -3.3307    -3.4812 C.3     
  39 C39            1.1727     3.4185     0.7299 C.3     
  40 C40            1.3939     3.2813     2.2143 C.ar    
  41 C41            2.6795     3.2442     2.7210 C.ar    
  42 C42            2.8824     3.1182     4.0825 C.ar    
  43 C43            1.7997     3.0298     4.9374 C.ar    
  44 C44            0.5141     3.0679     4.4308 C.ar    
  45 C45            0.3112     3.1982     3.0697 C.ar    
  46 H46            3.1700    -0.1560    -1.2473 H       
  47 H47            3.1912     2.0392    -0.2289 H       
  48 H48           -2.4545     0.7622     0.4848 H       
  49 H49            0.6831    -2.4303    -1.1091 H       
  50 H50            1.8805    -4.1953    -5.2975 H       
  51 H51            1.0687    -3.9580    -2.9876 H       
  52 H52            1.9829     0.2260    -3.2237 H       
  53 H53            2.7610    -0.1445    -5.5278 H       
  54 H54           -2.9235    -2.5098    -0.8722 H       
  55 H55           -5.1432    -3.5685    -1.2109 H       
  56 H56           -6.9535     0.1299    -0.0501 H       
  57 H57           -7.0802    -4.5415     3.0911 H       
  58 H58           -6.2453    -2.9207     1.4449 H       
  59 H59           -9.5522    -3.0433    -2.0078 H       
  60 H60          -11.0360    -6.2629     1.4592 H       
  61 H61          -13.9092    -7.4509     0.1728 H       
  62 H62          -12.1920    -7.7194     0.5565 H       
  63 H63          -13.0945    -6.4217     1.3749 H       
  64 H64          -11.9925    -3.2845    -4.3205 H       
  65 H65          -11.2207    -2.3464    -3.0196 H       
  66 H66          -10.3172    -3.6434    -3.8379 H       
  67 H67            1.9955     3.9824     0.2906 H       
  68 H68            0.2349     3.9440     0.5494 H       
  69 H69            3.5254     3.3132     2.0531 H       
  70 H70            3.8868     3.0885     4.4783 H       
  71 H71            1.9583     2.9307     6.0011 H       
  72 H72           -0.3318     2.9985     5.0987 H       
  73 H73           -0.6933     3.2316     2.6742 H       
@<TRIPOS>BOND
   1    1    2 1
   2    1    6 am
   3    1   17 2
   4    2    3 2
   5    2    7 1
   6    3    4 1
   7    3   10 1
   8    4    5 2
   9    4   46 1
  10    5    6 1
  11    5   47 1
  12    6   39 1
  13    7    8 2
  14    7    9 am
  15    9   18 1
  16    9   48 1
  17   10   13 1
  18   10   49 1
  19   11   12 ar
  20   11   16 ar
  21   11   50 1
  22   12   13 ar
  23   12   51 1
  24   13   14 ar
  25   14   15 ar
  26   14   52 1
  27   15   16 ar
  28   15   53 1
  29   18   19 ar
  30   18   23 ar
  31   19   20 ar
  32   19   54 1
  33   20   21 ar
  34   20   55 1
  35   21   22 ar
  36   21   24 1
  37   22   23 ar
  38   22   56 1
  39   24   28 1
  40   25   26 ar
  41   25   34 ar
  42   26   27 ar
  43   26   57 1
  44   27   28 ar
  45   27   58 1
  46   28   29 ar
  47   29   30 ar
  48   29   34 ar
  49   30   31 ar
  50   30   59 1
  51   31   32 ar
  52   31   37 1
  53   32   33 ar
  54   32   35 1
  55   33   34 ar
  56   33   60 1
  57   35   36 1
  58   36   61 1
  59   36   62 1
  60   36   63 1
  61   37   38 1
  62   38   64 1
  63   38   65 1
  64   38   66 1
  65   39   40 1
  66   39   67 1
  67   39   68 1
  68   40   41 ar
  69   40   45 ar
  70   41   42 ar
  71   41   69 1
  72   42   43 ar
  73   42   70 1
  74   43   44 ar
  75   43   71 1
  76   44   45 ar
  77   44   72 1
  78   45   73 1

#	End of record

