#	Name: ASD03080211
#	Creating user name:	WinNT
#	Creation time:	15. 06. 2019 20:26

#	Modifying user name:	WinNT
#	Modification time:	15. 06. 2019 20:26

#	Program:	/corina/corina34_cracker 3.40 0067  02.08.2006

@<TRIPOS>MOLECULE
ASD03080211
  26   28    0    0    0
SMALL
NO_CHARGES


@<TRIPOS>ATOM
   1 C1            -0.0168     1.3902     0.0097 C.ar    
   2 C2             0.0021    -0.0041     0.0020 C.ar    
   3 C3            -1.2218    -0.6813     0.0100 C.ar    
   4 C4            -2.4053     0.0600     0.0253 C.ar    
   5 N5            -2.3766     1.3769     0.0316 N.ar    
   6 C6            -1.2443     2.0511     0.0308 C.ar    
   7 C7             1.2524     2.1602     0.0017 C.2     
   8 N8             1.3718     3.5043     0.0078 N.2     
   9 C9             2.6697     3.7434    -0.0033 C.2     
  10 O10            3.2852     2.5509    -0.0156 O.3     
  11 N11            2.4617     1.6608    -0.0068 N.2     
  12 C12            3.3207     5.0706    -0.0032 C.ar    
  13 C13            2.5545     6.2366     0.0096 C.ar    
  14 N14            3.1344     7.4191     0.0098 N.ar    
  15 C15            4.4469     7.5514    -0.0015 C.ar    
  16 C16            5.2762     6.4441    -0.0146 C.ar    
  17 C17            4.7166     5.1788    -0.0100 C.ar    
  18 C18           -1.2607    -2.1128     0.0022 C.1     
  19 N19           -1.2915    -3.2483    -0.0039 N.1     
  20 H20            0.9361    -0.5462    -0.0101 H       
  21 H21           -3.3557    -0.4528     0.0315 H       
  22 H22           -1.2676     3.1308     0.0362 H       
  23 H23            1.4767     6.1689     0.0191 H       
  24 H24            4.8811     8.5403    -0.0009 H       
  25 H25            6.3493     6.5662    -0.0242 H       
  26 H26            5.3404     4.2972    -0.0199 H       
@<TRIPOS>BOND
   1    1    2 ar
   2    1    7 1
   3    1    6 ar
   4    2    3 ar
   5    2   20 1
   6    3   18 1
   7    3    4 ar
   8    4    5 ar
   9    4   21 1
  10    5    6 ar
  11    6   22 1
  12    7    8 1
  13    7   11 2
  14    8    9 2
  15    9   10 1
  16    9   12 1
  17   10   11 1
  18   12   13 ar
  19   12   17 ar
  20   13   14 ar
  21   13   23 1
  22   14   15 ar
  23   15   16 ar
  24   15   24 1
  25   16   17 ar
  26   16   25 1
  27   17   26 1
  28   18   19 3

#	End of record

