#	Name: ASD02448018
#	Creating user name:	WinNT
#	Creation time:	15. 06. 2019 20:21

#	Modifying user name:	WinNT
#	Modification time:	15. 06. 2019 20:21

#	Program:	/corina/corina34_cracker 3.40 0067  02.08.2006

@<TRIPOS>MOLECULE
ASD02448018
  78   84    0    0    0
SMALL
NO_CHARGES


@<TRIPOS>ATOM
   1 C1             3.2603    -7.4555    -1.1336 C.ar    
   2 C2             2.7596    -6.3422    -0.4890 C.ar    
   3 C3             2.1809    -5.3161    -1.2236 C.ar    
   4 C4             2.1055    -5.4092    -2.6067 C.ar    
   5 C5             2.6055    -6.5223    -3.2521 C.ar    
   6 C6             3.1850    -7.5490    -2.5175 C.ar    
   7 N7             3.6919    -8.6764    -3.1708 N.am    
   8 C8             4.7416    -9.5928    -2.7065 C.3     
   9 C9             4.9942   -10.6789    -3.7019 C.2     
  10 N10            4.2356   -10.6169    -4.8053 N.am    
  11 S11            3.2380    -9.2931    -4.6530 S.o2    
  12 O12            5.8213   -11.5481    -3.5251 O.2     
  13 O13            1.9099    -9.7817    -4.5231 O.2     
  14 O14            3.6428    -8.3480    -5.6339 O.2     
  15 N15            1.6716    -4.1846    -0.5678 N.pl3   
  16 C16            0.7319    -4.1779     0.4278 C.2     
  17 C17            2.0239    -2.8930    -0.7989 C.2     
  18 N18            1.3417    -2.1203    -0.0002 N.2     
  19 C19            0.5350    -2.8778     0.7703 C.2     
  20 C20           -0.4011    -2.3801     1.8080 C.ar    
  21 C21            0.0341    -1.4578     2.7590 C.ar    
  22 C22           -1.7212    -2.8285     1.8330 C.ar    
  23 C23           -2.5881    -2.3614     2.8018 C.ar    
  24 C24           -2.1490    -1.4506     3.7456 C.ar    
  25 C25           -0.8422    -0.9981     3.7228 C.ar    
  26 C26            3.0376    -2.4290    -1.8130 C.3     
  27 C27            4.3767    -2.2587    -1.1430 C.ar    
  28 C28            5.3005    -3.2875    -1.1782 C.ar    
  29 C29            4.6795    -1.0721    -0.5000 C.ar    
  30 C30            5.9046    -0.9106     0.1149 C.ar    
  31 C31            6.8370    -1.9456     0.0871 C.ar    
  32 C32            6.5286    -3.1369    -0.5667 C.ar    
  33 C33            8.1560    -1.7776     0.7459 C.ar    
  34 C34            9.0884    -2.8126     0.7181 C.ar    
  35 C35            8.4687    -0.5821     1.3897 C.ar    
  36 C36            9.6970    -0.4312     2.0009 C.ar    
  37 C37           10.6168    -1.4639     1.9747 C.ar    
  38 C38           10.3136    -2.6509     1.3325 C.ar    
  39 C39           11.9567    -1.2929     2.6430 C.3     
  40 C40           12.1210    -2.3522     3.7347 C.3     
  41 C41           13.4813    -2.1786     4.4132 C.3     
  42 C42           14.5934    -2.3396     3.3749 C.3     
  43 C43           14.4291    -1.2803     2.2831 C.3     
  44 C44           13.0688    -1.4540     1.6047 C.3     
  45 Cl45           1.6740    -0.8888     2.7320 Cl      
  46 Cl46          -2.2744    -3.9708     0.6486 Cl      
  47 H47            3.7144    -8.2517    -0.5624 H       
  48 H48            2.8178    -6.2696     0.5870 H       
  49 H49            1.6553    -4.6107    -3.1778 H       
  50 H50            2.5462    -6.5950    -4.3280 H       
  51 H51            5.6623    -9.0309    -2.5499 H       
  52 H52            4.4330   -10.0395    -1.7613 H       
  53 H53            4.2612   -11.2327    -5.5543 H       
  54 H54            0.2417    -5.0390     0.8573 H       
  55 H55           -3.6108    -2.7079     2.8222 H       
  56 H56           -2.8306    -1.0880     4.5009 H       
  57 H57           -0.5051    -0.2871     4.4626 H       
  58 H58            3.1208    -3.1695    -2.6085 H       
  59 H59            2.7189    -1.4761    -2.2355 H       
  60 H60            5.0603    -4.2106    -1.6849 H       
  61 H61            3.9562    -0.2704    -0.4793 H       
  62 H62            6.1402     0.0165     0.6164 H       
  63 H63            7.2476    -3.9424    -0.5909 H       
  64 H64            8.8527    -3.7398     0.2169 H       
  65 H65            7.7515     0.2251     1.4101 H       
  66 H66            9.9404     0.4949     2.5002 H       
  67 H67           11.0354    -3.4541     1.3154 H       
  68 H68           12.0165    -0.2999     3.0884 H       
  69 H69           11.3287    -2.2375     4.4745 H       
  70 H70           12.0612    -3.3453     3.2894 H       
  71 H71           13.5411    -1.1855     4.8586 H       
  72 H72           13.5983    -2.9332     5.1910 H       
  73 H73           15.5625    -2.2159     3.8582 H       
  74 H74           14.5336    -3.3327     2.9295 H       
  75 H75           14.4888    -0.2873     2.7285 H       
  76 H76           15.2213    -1.3951     1.5434 H       
  77 H77           13.0090    -2.4470     1.1593 H       
  78 H78           12.9517    -0.6993     0.8269 H       
@<TRIPOS>BOND
   1    1    2 ar
   2    1    6 ar
   3    1   47 1
   4    2    3 ar
   5    2   48 1
   6    3    4 ar
   7    3   15 1
   8    4    5 ar
   9    4   49 1
  10    5    6 ar
  11    5   50 1
  12    6    7 1
  13    7    8 1
  14    7   11 am
  15    8    9 1
  16    8   51 1
  17    8   52 1
  18    9   10 am
  19    9   12 2
  20   10   11 am
  21   10   53 1
  22   11   13 2
  23   11   14 2
  24   15   16 1
  25   15   17 1
  26   16   19 2
  27   16   54 1
  28   17   18 2
  29   17   26 1
  30   18   19 1
  31   19   20 1
  32   20   21 ar
  33   20   22 ar
  34   21   45 1
  35   21   25 ar
  36   22   23 ar
  37   22   46 1
  38   23   24 ar
  39   23   55 1
  40   24   25 ar
  41   24   56 1
  42   25   57 1
  43   26   27 1
  44   26   58 1
  45   26   59 1
  46   27   28 ar
  47   27   29 ar
  48   28   32 ar
  49   28   60 1
  50   29   30 ar
  51   29   61 1
  52   30   31 ar
  53   30   62 1
  54   31   32 ar
  55   31   33 1
  56   32   63 1
  57   33   34 ar
  58   33   35 ar
  59   34   38 ar
  60   34   64 1
  61   35   36 ar
  62   35   65 1
  63   36   37 ar
  64   36   66 1
  65   37   38 ar
  66   37   39 1
  67   38   67 1
  68   39   40 1
  69   39   44 1
  70   39   68 1
  71   40   41 1
  72   40   69 1
  73   40   70 1
  74   41   42 1
  75   41   71 1
  76   41   72 1
  77   42   43 1
  78   42   73 1
  79   42   74 1
  80   43   44 1
  81   43   75 1
  82   43   76 1
  83   44   77 1
  84   44   78 1

#	End of record

