#	Name: ASD02560171
#	Creating user name:	WinNT
#	Creation time:	15. 06. 2019 20:24

#	Modifying user name:	WinNT
#	Modification time:	15. 06. 2019 20:24

#	Program:	/corina/corina34_cracker 3.40 0067  02.08.2006

@<TRIPOS>MOLECULE
ASD02560171
  50   53    0    0    0
SMALL
NO_CHARGES


@<TRIPOS>ATOM
   1 Br1            1.6721     2.2269    -1.7720 Br      
   2 N2             0.0182     1.0709     0.2184 N.2     
   3 N3            -0.0063    -0.1636     0.1983 N.2     
   4 C4             1.3876     1.5778     0.0619 C.3     
   5 N5             2.2583     0.4070     0.3368 N.3     
   6 C6             1.3422    -0.7190     0.0245 C.3     
   7 S7             1.6132    -2.0925     1.1779 S.3     
   8 C8             1.2574    -1.3458     2.7924 C.3     
   9 C9             1.4410    -2.3782     3.8748 C.2     
  10 O10            1.7787    -3.5066     3.5855 O.2     
  11 N11            1.2300    -2.0476     5.1642 N.am    
  12 C12            3.3685     0.3988    -0.5106 C.ar    
  13 C13            1.3221    -3.0254     6.1616 C.ar    
  14 C14            0.6209    -2.8742     7.3521 C.ar    
  15 C15            0.7139    -3.8419     8.3342 C.ar    
  16 C16            1.5036    -4.9593     8.1330 C.ar    
  17 C17            2.2021    -5.1121     6.9497 C.ar    
  18 C18            2.1094    -4.1510     5.9616 C.ar    
  19 Cl19          -0.3700    -1.4714     7.6052 Cl      
  20 S20            1.6201    -6.1908     9.3878 S.o2    
  21 O21            2.8478    -6.8721     9.1686 O.2     
  22 O22            1.2963    -5.5474    10.6127 O.2     
  23 C23            4.1961     1.5121    -0.5846 C.ar    
  24 C24            3.6509    -0.7247    -1.2771 C.ar    
  25 C25            4.7495    -0.7295    -2.1140 C.ar    
  26 C26            5.5682     0.3824    -2.1892 C.ar    
  27 C27            5.2930     1.5006    -1.4235 C.ar    
  28 N28            0.4168    -7.2931     9.1062 N.am    
  29 C29            6.7667     0.3733    -3.1028 C.3     
  30 C30            6.8199     1.4291    -4.2089 C.3     
  31 C31            7.7454     1.5444    -2.9960 C.3     
  32 H32            1.5826     2.3731     0.7814 H       
  33 H33            1.4861    -1.0514    -1.0036 H       
  34 H34            1.9386    -0.5128     2.9655 H       
  35 H35            0.2294    -0.9835     2.8065 H       
  36 H36            1.0143    -1.1320     5.4011 H       
  37 H37            0.1698    -3.7253     9.2598 H       
  38 H38            2.8181    -5.9858     6.7961 H       
  39 H39            2.6555    -4.2714     5.0376 H       
  40 H40            3.9817     2.3857     0.0131 H       
  41 H41            3.0123    -1.5937    -1.2184 H       
  42 H42            4.9696    -1.6027    -2.7102 H       
  43 H43            5.9344     2.3674    -1.4846 H       
  44 H44           -0.1829    -7.1746     8.3531 H       
  45 H45            0.3118    -8.0573     9.6943 H       
  46 H46            7.1805    -0.6102    -3.3255 H       
  47 H47            7.2691     1.1403    -5.1591 H       
  48 H48            5.9881     2.1303    -4.2757 H       
  49 H49            7.5225     2.3215    -2.2649 H       
  50 H50            8.8035     1.3315    -3.1483 H       
@<TRIPOS>BOND
   1    1    4 1
   2    2    3 2
   3    2    4 1
   4    3    6 1
   5    4    5 1
   6    4   32 1
   7    5    6 1
   8    5   12 1
   9    6    7 1
  10    6   33 1
  11    7    8 1
  12    8    9 1
  13    8   34 1
  14    8   35 1
  15    9   10 2
  16    9   11 am
  17   11   13 1
  18   11   36 1
  19   12   23 ar
  20   12   24 ar
  21   13   14 ar
  22   13   18 ar
  23   14   15 ar
  24   14   19 1
  25   15   16 ar
  26   15   37 1
  27   16   17 ar
  28   16   20 1
  29   17   18 ar
  30   17   38 1
  31   18   39 1
  32   20   21 2
  33   20   22 2
  34   20   28 am
  35   23   27 ar
  36   23   40 1
  37   24   25 ar
  38   24   41 1
  39   25   26 ar
  40   25   42 1
  41   26   27 ar
  42   26   29 1
  43   27   43 1
  44   28   44 1
  45   28   45 1
  46   29   30 1
  47   29   31 1
  48   29   46 1
  49   30   31 1
  50   30   47 1
  51   30   48 1
  52   31   49 1
  53   31   50 1

#	End of record

