#	Name: ASD04660001
#	Creating user name:	WinNT
#	Creation time:	15. 06. 2019 20:52

#	Modifying user name:	WinNT
#	Modification time:	15. 06. 2019 20:52

#	Program:	/corina/corina34_cracker 3.40 0067  02.08.2006

@<TRIPOS>MOLECULE
ASD04660001
  52   56    0    0    0
SMALL
NO_CHARGES


@<TRIPOS>ATOM
   1 C1            -0.0167     1.3781     0.0096 C.ar    
   2 C2             0.0021    -0.0041     0.0020 C.ar    
   3 C3             1.2084    -0.6789    -0.0132 C.ar    
   4 C4             2.3960     0.0285    -0.0212 C.ar    
   5 C5             2.3773     1.4107    -0.0145 C.ar    
   6 C6             1.1710     2.0855     0.0021 C.ar    
   7 C7             2.2065     5.3825    -2.7288 C.ar    
   8 C8             3.0084     4.5855    -1.9338 C.ar    
   9 C9             3.4871     3.3725    -2.4160 C.ar    
  10 C10            3.1604     2.9590    -3.6982 C.ar    
  11 C11            2.3510     3.7637    -4.5006 C.ar    
  12 C12            1.8755     4.9799    -4.0067 C.ar    
  13 C13           -1.4037     5.1309   -11.2494 C.ar    
  14 C14           -0.6813     3.9403   -11.1542 C.ar    
  15 C15           -0.6544     3.0568   -12.2348 C.ar    
  16 C16           -1.3426     3.3635   -13.3953 C.ar    
  17 C17           -2.0635     4.5510   -13.4827 C.ar    
  18 C18           -2.0889     5.4299   -12.4080 C.ar    
  19 C19            0.8859     3.7034    -7.9245 C.2     
  20 N20            1.2633     2.5912    -8.5071 N.2     
  21 N21            0.7671     2.5388    -9.6930 N.2     
  22 C22            0.0530     3.6164    -9.9139 C.2     
  23 O23            0.1136     4.3759    -8.7987 O.3     
  24 O24           -1.3003     2.4959   -14.4436 O.3     
  25 C25           -2.3027     2.6566   -15.4531 C.3     
  26 C26           -2.3989     4.1479   -15.8020 C.3     
  27 O27           -2.7525     4.8643   -14.6140 O.3     
  28 S28            3.8911     2.3124    -0.0242 S.o2    
  29 N29            4.2977     2.5707    -1.6086 N.am    
  30 O30            3.6013     3.5889     0.5289 O.2     
  31 O31            4.8803     1.4415     0.5071 O.2     
  32 C32            1.9984     3.3304    -5.8690 C.2     
  33 N33            1.2163     4.1095    -6.6421 N.am    
  34 O34            2.4138     2.2712    -6.2971 O.2     
  35 H35           -0.9592     1.9054     0.0170 H       
  36 H36           -0.9258    -0.5567     0.0083 H       
  37 H37            1.2231    -1.7588    -0.0184 H       
  38 H38            3.3386    -0.4987    -0.0324 H       
  39 H39            1.1563     3.1654     0.0069 H       
  40 H40            1.8340     6.3216    -2.3470 H       
  41 H41            3.2643     4.9062    -0.9348 H       
  42 H42            3.5315     2.0173    -4.0749 H       
  43 H43            1.2484     5.6054    -4.6246 H       
  44 H44           -1.4296     5.8154   -10.4144 H       
  45 H45           -0.0964     2.1347   -12.1651 H       
  46 H46           -2.6477     6.3513   -12.4799 H       
  47 H47           -2.0245     2.0886   -16.3409 H       
  48 H48           -3.2631     2.3044   -15.0768 H       
  49 H49           -1.4366     4.5017   -16.1719 H       
  50 H50           -3.1640     4.2986   -16.5635 H       
  51 H51            5.0986     2.1653    -1.9761 H       
  52 H52            0.8848     4.9547    -6.3005 H       
@<TRIPOS>BOND
   1    1    2 ar
   2    1    6 ar
   3    1   35 1
   4    2    3 ar
   5    2   36 1
   6    3    4 ar
   7    3   37 1
   8    4    5 ar
   9    4   38 1
  10    5    6 ar
  11    5   28 1
  12    6   39 1
  13    7    8 ar
  14    7   12 ar
  15    7   40 1
  16    8    9 ar
  17    8   41 1
  18    9   10 ar
  19    9   29 1
  20   10   11 ar
  21   10   42 1
  22   11   12 ar
  23   11   32 1
  24   12   43 1
  25   13   14 ar
  26   13   18 ar
  27   13   44 1
  28   14   15 ar
  29   14   22 1
  30   15   16 ar
  31   15   45 1
  32   16   17 ar
  33   16   24 1
  34   17   18 ar
  35   17   27 1
  36   18   46 1
  37   19   20 2
  38   19   23 1
  39   19   33 1
  40   20   21 1
  41   21   22 2
  42   22   23 1
  43   24   25 1
  44   25   26 1
  45   25   47 1
  46   25   48 1
  47   26   27 1
  48   26   49 1
  49   26   50 1
  50   28   29 am
  51   28   30 2
  52   28   31 2
  53   29   51 1
  54   32   33 am
  55   32   34 2
  56   33   52 1

#	End of record

