#	Name: ASD01915600
#	Creating user name:	WinNT
#	Creation time:	15. 06. 2019 20:05

#	Modifying user name:	WinNT
#	Modification time:	15. 06. 2019 20:05

#	Program:	/corina/corina34_cracker 3.40 0067  02.08.2006

@<TRIPOS>MOLECULE
ASD01915600
  43   46    0    0    0
SMALL
NO_CHARGES


@<TRIPOS>ATOM
   1 C1            -0.0043     1.4623     0.2157 C.2     
   2 N2             0.0609     0.1087    -0.0286 N.pl3   
   3 C3            -1.1521    -0.6755    -0.2899 C.3     
   4 C4            -2.3301    -0.0460     0.4517 C.3     
   5 N5            -2.4044     1.3988     0.2637 N.am    
   6 C6            -1.2915     2.1718     0.2657 C.2     
   7 C7             1.2787     1.8994     0.3901 C.2     
   8 C8             2.0743     0.7544     0.2498 C.2     
   9 N9             1.2806    -0.2630     0.0089 N.2     
  10 C10            3.5767     0.7008     0.3557 C.3     
  11 O11            4.0823     2.0100     0.6248 O.3     
  12 C12            5.4294     2.1373     0.7506 C.ar    
  13 O13           -1.3537     3.3858     0.3073 O.2     
  14 C14            5.9885     3.3797     1.0121 C.ar    
  15 C15            6.2474     1.0240     0.6235 C.ar    
  16 C16            7.6165     1.1561     0.7518 C.ar    
  17 C17            8.1718     2.3964     1.0067 C.ar    
  18 C18            7.3582     3.5065     1.1395 C.ar    
  19 C19           -3.6502     1.9985     0.0775 C.ar    
  20 C20           -4.8129     1.2708     0.3031 C.ar    
  21 N21           -5.9923     1.8392     0.1267 N.ar    
  22 C22           -6.0671     3.1032    -0.2654 C.ar    
  23 C23           -4.9054     3.8310    -0.4910 C.ar    
  24 N24           -3.7257     3.2654    -0.3096 N.ar    
  25 O25           -7.2794     3.6867    -0.4470 O.3     
  26 C26           -8.4319     2.8795    -0.1973 C.3     
  27 H27           -1.3575    -0.6820    -1.3603 H       
  28 H28           -1.0067    -1.6978     0.0593 H       
  29 H29           -3.2548    -0.4961     0.0905 H       
  30 H30           -2.2299    -0.2579     1.5162 H       
  31 H31            1.6078     2.9081     0.5917 H       
  32 H32            3.8600     0.0283     1.1654 H       
  33 H33            3.9942     0.3358    -0.5826 H       
  34 H34            5.3535     4.2472     1.1156 H       
  35 H35            5.8142     0.0549     0.4247 H       
  36 H36            8.2537     0.2896     0.6532 H       
  37 H37            9.2423     2.4976     1.1066 H       
  38 H38            7.7943     4.4744     1.3383 H       
  39 H39           -4.7520     0.2408     0.6223 H       
  40 H40           -4.9670     4.8608    -0.8105 H       
  41 H41           -8.4206     2.0149    -0.8609 H       
  42 H42           -8.4215     2.5422     0.8392 H       
  43 H43           -9.3325     3.4657    -0.3796 H       
@<TRIPOS>BOND
   1    1    2 1
   2    1    7 2
   3    1    6 1
   4    2    3 1
   5    2    9 1
   6    3    4 1
   7    3   27 1
   8    3   28 1
   9    4    5 1
  10    4   29 1
  11    4   30 1
  12    5    6 am
  13    5   19 1
  14    6   13 2
  15    7    8 1
  16    7   31 1
  17    8    9 2
  18    8   10 1
  19   10   11 1
  20   10   32 1
  21   10   33 1
  22   11   12 1
  23   12   14 ar
  24   12   15 ar
  25   14   18 ar
  26   14   34 1
  27   15   16 ar
  28   15   35 1
  29   16   17 ar
  30   16   36 1
  31   17   18 ar
  32   17   37 1
  33   18   38 1
  34   19   20 ar
  35   19   24 ar
  36   20   21 ar
  37   20   39 1
  38   21   22 ar
  39   22   23 ar
  40   22   25 1
  41   23   24 ar
  42   23   40 1
  43   25   26 1
  44   26   41 1
  45   26   42 1
  46   26   43 1

#	End of record

