#	Name: ASD01028699
#	Creating user name:	WinNT
#	Creation time:	15. 06. 2019 18:58

#	Modifying user name:	WinNT
#	Modification time:	15. 06. 2019 18:58

#	Program:	/corina/corina34_cracker 3.40 0067  02.08.2006

@<TRIPOS>MOLECULE
ASD01028699
  37   41    0    0    0
SMALL
NO_CHARGES


@<TRIPOS>ATOM
   1 C1            -0.0164     1.3615     0.0095 C.ar    
   2 C2             0.0021    -0.0041     0.0020 C.ar    
   3 C3             1.2188    -0.6830    -0.0133 C.ar    
   4 N4             2.3642    -0.0457    -0.0208 N.ar    
   5 C5             2.4164     1.2901    -0.0140 C.ar    
   6 C6             3.6475     1.9682    -0.0216 C.ar    
   7 C7             3.6690     3.3291    -0.0140 C.ar    
   8 C8             2.4873     4.0667     0.0010 C.ar    
   9 C9             1.2757     3.4451     0.0092 C.ar    
  10 C10            1.2156     2.0425     0.0014 C.ar    
  11 C11            4.9926     4.0497    -0.0217 C.3     
  12 C12            6.6874     4.9389     3.2203 C.ar    
  13 C13            6.6813     4.9497     1.8145 C.ar    
  14 C14            7.7457     5.5364     1.1265 C.ar    
  15 C15            8.7805     6.0924     1.8752 C.ar    
  16 C16            8.7141     6.0422     3.2700 C.ar    
  17 N17            7.6970     5.4814     3.8864 N.ar    
  18 O18            5.5529     4.3237     3.6118 O.3     
  19 N19            4.8111     3.9354     2.4735 N.2     
  20 C20            5.4463     4.2818     1.3965 C.2     
  21 C21           10.9667     7.2826     1.8741 C.2     
  22 S22           12.1092     7.9167     0.6924 S.3     
  23 C23           11.1054     7.3829    -0.5838 C.2     
  24 N24           10.0527     6.8049    -0.1176 N.2     
  25 C25            9.9386     6.7295     1.2003 C.2     
  26 F26            5.9424     3.2732    -0.6940 F       
  27 F27            4.8502     5.2796    -0.6730 F       
  28 H28           -0.9504     1.9039     0.0169 H       
  29 H29           -0.9255    -0.5572     0.0083 H       
  30 H30            1.2180    -1.7630    -0.0187 H       
  31 H31            4.5729     1.4116    -0.0329 H       
  32 H32            2.5326     5.1458     0.0067 H       
  33 H33            0.3664     4.0277     0.0216 H       
  34 H34            7.7662     5.5580     0.0469 H       
  35 H35            9.5148     6.4720     3.8536 H       
  36 H36           11.0735     7.3253     2.9479 H       
  37 H37           11.3228     7.5125    -1.6337 H       
@<TRIPOS>BOND
   1    1    2 ar
   2    1   10 ar
   3    1   28 1
   4    2    3 ar
   5    2   29 1
   6    3    4 ar
   7    3   30 1
   8    4    5 ar
   9    5    6 ar
  10    5   10 ar
  11    6    7 ar
  12    6   31 1
  13    7    8 ar
  14    7   11 1
  15    8    9 ar
  16    8   32 1
  17    9   10 ar
  18    9   33 1
  19   11   26 1
  20   11   27 1
  21   11   20 1
  22   12   13 ar
  23   12   17 ar
  24   12   18 1
  25   13   14 ar
  26   13   20 1
  27   14   15 ar
  28   14   34 1
  29   15   16 ar
  30   15   25 1
  31   16   17 ar
  32   16   35 1
  33   18   19 1
  34   19   20 2
  35   21   22 1
  36   21   25 2
  37   21   36 1
  38   22   23 1
  39   23   24 2
  40   23   37 1
  41   24   25 1

#	End of record

