#	Name: ASD04230148
#	Creating user name:	WinNT
#	Creation time:	15. 06. 2019 20:48

#	Modifying user name:	WinNT
#	Modification time:	15. 06. 2019 20:48

#	Program:	/corina/corina34_cracker 3.40 0067  02.08.2006

@<TRIPOS>MOLECULE
ASD04230148
  46   50    0    0    0
SMALL
NO_CHARGES


@<TRIPOS>ATOM
   1 C1             1.5358     4.6863     1.7197 C.ar    
   2 C2             2.5436     5.3841     2.3696 C.ar    
   3 C3             3.8002     4.8590     2.4684 C.ar    
   4 C4             4.0822     3.6080     1.9007 C.ar    
   5 C5             3.0562     2.8818     1.2694 C.ar    
   6 C6             1.7830     3.4397     1.1727 C.ar    
   7 C7             5.3931     3.0678     1.9625 C.2     
   8 C8             5.6626     1.9284     1.2160 C.2     
   9 C9             4.5671     1.3877     0.3908 C.2     
  10 O10            3.2977     1.6422     0.7797 O.3     
  11 C11            6.9877     1.2871     1.2470 C.2     
  12 N12            7.2188     0.1818     0.5112 N.am    
  13 O13            7.8738     1.7548     1.9366 O.2     
  14 C14            8.5059    -0.3623     0.4518 C.ar    
  15 C15            8.6753    -1.7390     0.3696 C.ar    
  16 C16            9.9457    -2.2805     0.3108 C.ar    
  17 C17           11.0532    -1.4570     0.3338 C.ar    
  18 C18           10.8928    -0.0743     0.4162 C.ar    
  19 C19            9.6134     0.4724     0.4692 C.ar    
  20 C20           12.0819     0.8121     0.4410 C.ar    
  21 O21            4.7981     0.7335    -0.6088 O.2     
  22 O22            0.7868     2.7610     0.5435 O.3     
  23 C23           13.3553     0.2610     0.3763 C.ar    
  24 C24           11.9141     2.1987     0.5238 C.ar    
  25 C25           12.9985     3.0250     0.5466 C.ar    
  26 C26           14.2870     2.4865     0.4876 C.ar    
  27 C27           14.4669     1.0932     0.3993 C.ar    
  28 C28           15.6310     3.0681     0.4913 C.2     
  29 C29           16.5011     2.0481     0.4145 C.2     
  30 N30           15.8242     0.8605     0.3579 N.pl3   
  31 H31            0.5487     5.1179     1.6442 H       
  32 H32            2.3325     6.3515     2.8009 H       
  33 H33            4.5760     5.4066     2.9828 H       
  34 H34            6.1573     3.5287     2.5708 H       
  35 H35            6.4924    -0.2364     0.0228 H       
  36 H36            7.8120    -2.3878     0.3520 H       
  37 H37           10.0721    -3.3512     0.2470 H       
  38 H38           12.0443    -1.8837     0.2884 H       
  39 H39            9.4839     1.5427     0.5327 H       
  40 H40            0.2741     2.1849     1.1269 H       
  41 H41           13.4803    -0.8097     0.3087 H       
  42 H42           10.9194     2.6171     0.5695 H       
  43 H43           12.8619     4.0945     0.6098 H       
  44 H44           15.8760     4.1186     0.5453 H       
  45 H45           17.5761     2.1503     0.3964 H       
  46 H46           16.2381    -0.0147     0.2990 H       
@<TRIPOS>BOND
   1    1    2 ar
   2    1    6 ar
   3    1   31 1
   4    2    3 ar
   5    2   32 1
   6    3    4 ar
   7    3   33 1
   8    4    5 ar
   9    4    7 1
  10    5    6 ar
  11    5   10 1
  12    6   22 1
  13    7    8 2
  14    7   34 1
  15    8    9 1
  16    8   11 1
  17    9   10 1
  18    9   21 2
  19   11   12 am
  20   11   13 2
  21   12   14 1
  22   12   35 1
  23   14   15 ar
  24   14   19 ar
  25   15   16 ar
  26   15   36 1
  27   16   17 ar
  28   16   37 1
  29   17   18 ar
  30   17   38 1
  31   18   19 ar
  32   18   20 1
  33   19   39 1
  34   20   24 ar
  35   20   23 ar
  36   22   40 1
  37   23   27 ar
  38   23   41 1
  39   24   25 ar
  40   24   42 1
  41   25   26 ar
  42   25   43 1
  43   26   27 ar
  44   26   28 1
  45   27   30 1
  46   28   29 2
  47   28   44 1
  48   29   30 1
  49   29   45 1
  50   30   46 1

#	End of record

