#	Name: ASD03330102
#	Creating user name:	WinNT
#	Creation time:	15. 06. 2019 20:36

#	Modifying user name:	WinNT
#	Modification time:	15. 06. 2019 20:36

#	Program:	/corina/corina34_cracker 3.40 0067  02.08.2006

@<TRIPOS>MOLECULE
ASD03330102
  74   80    0    0    0
SMALL
NO_CHARGES


@<TRIPOS>ATOM
   1 C1             0.9324     1.1570    -0.0068 C.ar    
   2 C2             0.7375    -0.2050    -0.1361 C.ar    
   3 O3            -0.5052    -0.7425    -0.0770 O.3     
   4 C4            -1.5192    -0.0505     0.4970 C.ar    
   5 C5            -1.4447     1.3196     0.6606 C.ar    
   6 C6            -0.2333     2.0857     0.1984 C.3     
   7 C7            -2.6588    -0.7396     0.9281 C.ar    
   8 C8            -3.7080    -0.0445     1.5179 C.ar    
   9 C9            -3.6222     1.3252     1.6770 C.ar    
  10 C10           -2.4963     2.0037     1.2508 C.ar    
  11 C11            2.2141     1.6812    -0.0715 C.ar    
  12 C12            3.3016     0.8513    -0.2666 C.ar    
  13 C13            3.1188    -0.5118    -0.3980 C.ar    
  14 C14            1.8379    -1.0476    -0.3330 C.ar    
  15 C15            0.1398     3.1257     1.2567 C.3     
  16 C16           -0.5588     2.7990    -1.1155 C.3     
  17 P17           -2.7665    -2.5380     0.7168 P.3     
  18 C18           -4.1441    -2.9652     1.8169 C.ar    
  19 C19           -3.9312    -3.0888     3.1881 C.ar    
  20 C20           -4.9828    -3.4135     4.0207 C.ar    
  21 C21           -6.2467    -3.6167     3.4957 C.ar    
  22 C22           -6.4633    -3.4956     2.1346 C.ar    
  23 C23           -5.4199    -3.1652     1.2941 C.ar    
  24 C24           -3.5335    -2.6801    -0.9209 C.ar    
  25 C25           -3.7938    -3.9363    -1.4641 C.ar    
  26 C26           -4.3779    -4.0389    -2.7102 C.ar    
  27 C27           -4.7045    -2.8970    -3.4199 C.ar    
  28 C28           -4.4476    -1.6471    -2.8850 C.ar    
  29 C29           -3.8695    -1.5335    -1.6371 C.ar    
  30 P30            1.5926    -2.8369    -0.5026 P.3     
  31 C31            3.1775    -3.3700    -1.2056 C.ar    
  32 C32            3.4237    -3.2192    -2.5685 C.ar    
  33 C33            4.6313    -3.6260    -3.0982 C.ar    
  34 C34            5.5965    -4.1830    -2.2784 C.ar    
  35 C35            5.3569    -4.3353    -0.9242 C.ar    
  36 C36            4.1550    -3.9262    -0.3835 C.ar    
  37 C37            1.7331    -3.4014     1.2156 C.ar    
  38 C38            1.6008    -4.7545     1.5198 C.ar    
  39 C39            1.7090    -5.1788     2.8284 C.ar    
  40 C40            1.9481    -4.2630     3.8376 C.ar    
  41 C41            2.0799    -2.9180     3.5408 C.ar    
  42 C42            1.9795    -2.4841     2.2347 C.ar    
  43 H43           -4.5886    -0.5738     1.8506 H       
  44 H44           -4.4367     1.8667     2.1350 H       
  45 H45           -2.4351     3.0744     1.3783 H       
  46 H46            2.3637     2.7459     0.0309 H       
  47 H47            4.2963     1.2690    -0.3168 H       
  48 H48            3.9693    -1.1596    -0.5512 H       
  49 H49            0.3627     2.6226     2.1977 H       
  50 H50            1.0164     3.6825     0.9258 H       
  51 H51           -0.6940     3.8128     1.4008 H       
  52 H52           -1.3890     3.4878    -0.9589 H       
  53 H53            0.3157     3.3548    -1.4535 H       
  54 H54           -0.8352     2.0625    -1.8700 H       
  55 H55           -2.9449    -2.9311     3.5987 H       
  56 H56           -4.8188    -3.5095     5.0838 H       
  57 H57           -7.0669    -3.8710     4.1506 H       
  58 H58           -7.4517    -3.6556     1.7297 H       
  59 H59           -5.5909    -3.0666     0.2323 H       
  60 H60           -3.5386    -4.8282    -0.9112 H       
  61 H61           -4.5801    -5.0122    -3.1322 H       
  62 H62           -5.1611    -2.9816    -4.3949 H       
  63 H63           -4.7041    -0.7588    -3.4432 H       
  64 H64           -3.6735    -0.5574    -1.2186 H       
  65 H65            2.6705    -2.7852    -3.2094 H       
  66 H66            4.8231    -3.5096    -4.1547 H       
  67 H67            6.5402    -4.5004    -2.6969 H       
  68 H68            6.1135    -4.7711    -0.2886 H       
  69 H69            3.9707    -4.0414     0.6744 H       
  70 H70            1.4134    -5.4700     0.7328 H       
  71 H71            1.6066    -6.2275     3.0653 H       
  72 H72            2.0319    -4.5991     4.8605 H       
  73 H73            2.2662    -2.2071     4.3322 H       
  74 H74            2.0870    -1.4346     2.0036 H       
@<TRIPOS>BOND
   1    1    2 ar
   2    1   11 ar
   3    1    6 1
   4    2    3 1
   5    2   14 ar
   6    3    4 1
   7    4    5 ar
   8    4    7 ar
   9    5    6 1
  10    5   10 ar
  11    6   15 1
  12    6   16 1
  13    7    8 ar
  14    7   17 1
  15    8    9 ar
  16    8   43 1
  17    9   10 ar
  18    9   44 1
  19   10   45 1
  20   11   12 ar
  21   11   46 1
  22   12   13 ar
  23   12   47 1
  24   13   14 ar
  25   13   48 1
  26   14   30 1
  27   15   49 1
  28   15   50 1
  29   15   51 1
  30   16   52 1
  31   16   53 1
  32   16   54 1
  33   17   18 1
  34   17   24 1
  35   18   19 ar
  36   18   23 ar
  37   19   20 ar
  38   19   55 1
  39   20   21 ar
  40   20   56 1
  41   21   22 ar
  42   21   57 1
  43   22   23 ar
  44   22   58 1
  45   23   59 1
  46   24   25 ar
  47   24   29 ar
  48   25   26 ar
  49   25   60 1
  50   26   27 ar
  51   26   61 1
  52   27   28 ar
  53   27   62 1
  54   28   29 ar
  55   28   63 1
  56   29   64 1
  57   30   31 1
  58   30   37 1
  59   31   32 ar
  60   31   36 ar
  61   32   33 ar
  62   32   65 1
  63   33   34 ar
  64   33   66 1
  65   34   35 ar
  66   34   67 1
  67   35   36 ar
  68   35   68 1
  69   36   69 1
  70   37   38 ar
  71   37   42 ar
  72   38   39 ar
  73   38   70 1
  74   39   40 ar
  75   39   71 1
  76   40   41 ar
  77   40   72 1
  78   41   42 ar
  79   41   73 1
  80   42   74 1

#	End of record

