#	Name: ASD01028656
#	Creating user name:	WinNT
#	Creation time:	15. 06. 2019 18:57

#	Modifying user name:	WinNT
#	Modification time:	15. 06. 2019 18:57

#	Program:	/corina/corina34_cracker 3.40 0067  02.08.2006

@<TRIPOS>MOLECULE
ASD01028656
  45   48    0    0    0
SMALL
NO_CHARGES


@<TRIPOS>ATOM
   1 N1            -0.0157     1.3082     0.0092 N.ar    
   2 C2             0.0021    -0.0041     0.0020 C.ar    
   3 C3             1.1922    -0.7202    -0.0132 C.ar    
   4 C4             2.3997    -0.0447    -0.0211 C.ar    
   5 C5             2.3688     1.3681    -0.0132 C.ar    
   6 C6             3.5518     2.1216    -0.0208 C.ar    
   7 C7             3.4891     3.4809    -0.0134 C.ar    
   8 C8             2.2563     4.1399     0.0018 C.ar    
   9 C9             1.0778     3.4287     0.0101 C.ar    
  10 C10            1.1142     2.0252     0.0023 C.ar    
  11 O11            2.2210     5.4978     0.0089 O.3     
  12 O12            3.5766    -0.7177    -0.0354 O.3     
  13 C13            3.5077    -2.1450    -0.0420 C.3     
  14 C14            6.8454    -3.5109     0.5393 C.2     
  15 C15            7.8584    -3.9255     1.4279 C.2     
  16 C16            7.6477    -3.8396     2.7657 C.2     
  17 C17            6.4150    -3.3354     3.2497 C.2     
  18 C18            5.4479    -2.9394     2.3736 C.2     
  19 N19            5.6583    -3.0254     1.0315 N.pl3   
  20 N20            5.6092    -3.0012    -1.1205 N.2     
  21 N21            6.7583    -3.4692    -0.7800 N.2     
  22 C22            4.9026    -2.7151    -0.0579 C.2     
  23 O23            6.0017    -2.1142     5.4223 O.3     
  24 N24            5.8273    -2.3595     6.5932 N.2     
  25 C25            5.8582    -3.6401     6.8321 C.2     
  26 C26            6.0906    -4.2749     5.5953 C.2     
  27 C27            6.1773    -3.2385     4.7052 C.2     
  28 C28            5.6806    -4.3113     8.1696 C.3     
  29 H29           -0.9344    -0.5420     0.0084 H       
  30 H30            1.1751    -1.8000    -0.0185 H       
  31 H31            4.5103     1.6241    -0.0322 H       
  32 H32            4.4024     4.0574    -0.0190 H       
  33 H33            0.1306     3.9474     0.0219 H       
  34 H34            2.2023     5.8953    -0.8724 H       
  35 H35            2.9853    -2.4876     0.8512 H       
  36 H36            2.9687    -2.4787    -0.9287 H       
  37 H37            8.7937    -4.3085     1.0473 H       
  38 H38            8.4150    -4.1541     3.4576 H       
  39 H39            4.5097    -2.5560     2.7466 H       
  40 H40            6.1800    -5.3326     5.3962 H       
  41 H41            4.6245    -4.5282     8.3299 H       
  42 H42            6.2493    -5.2410     8.1879 H       
  43 H43            6.0396    -3.6502     8.9584 H       
  44 Br44          13.7937    10.8953    13.9584 Br      
  45 H45           13.7937    12.4053    13.9584 H       
@<TRIPOS>BOND
   1    1    2 ar
   2    1   10 ar
   3    2    3 ar
   4    2   29 1
   5    3    4 ar
   6    3   30 1
   7    4    5 ar
   8    4   12 1
   9    5    6 ar
  10    5   10 ar
  11    6    7 ar
  12    6   31 1
  13    7    8 ar
  14    7   32 1
  15    8    9 ar
  16    8   11 1
  17    9   10 ar
  18    9   33 1
  19   11   34 1
  20   12   13 1
  21   13   22 1
  22   13   35 1
  23   13   36 1
  24   14   15 1
  25   14   19 1
  26   14   21 2
  27   15   16 2
  28   15   37 1
  29   16   17 1
  30   16   38 1
  31   17   18 2
  32   17   27 1
  33   18   19 1
  34   18   39 1
  35   19   22 1
  36   20   21 1
  37   20   22 2
  38   23   24 1
  39   23   27 1
  40   24   25 2
  41   25   26 1
  42   25   28 1
  43   26   27 2
  44   26   40 1
  45   28   41 1
  46   28   42 1
  47   28   43 1
  48   44   45 1

#	End of record

