#	Name: ASD01001228
#	Creating user name:	WinNT
#	Creation time:	15. 06. 2019 18:55

#	Modifying user name:	WinNT
#	Modification time:	15. 06. 2019 18:55

#	Program:	/corina/corina34_cracker 3.40 0067  02.08.2006

@<TRIPOS>MOLECULE
ASD01001228
  58   62    0    0    0
SMALL
NO_CHARGES


@<TRIPOS>ATOM
   1 C1            -0.0168     1.3870     0.0097 C.ar    
   2 C2             0.0021    -0.0041     0.0020 C.ar    
   3 C3            -1.1791    -0.7213     0.0070 C.ar    
   4 C4            -2.3893    -0.0510     0.0202 C.ar    
   5 C5            -2.4160     1.3548     0.0322 C.ar    
   6 C6            -1.2219     2.0710     0.0306 C.ar    
   7 N7             1.1884     2.0998     0.0020 N.3     
   8 C8             2.3392     1.1877    -0.0139 C.3     
   9 C9             3.6298     1.9954    -0.1686 C.3     
  10 C10            3.7521     2.9811     0.9967 C.3     
  11 C11            2.5183     3.8875     1.0198 C.3     
  12 C12            1.2598     3.0250     1.1401 C.3     
  13 N13           -3.6067    -0.7289     0.0164 N.pl3   
  14 C14           -4.7659    -0.0838    -0.6122 C.3     
  15 N15           -4.8402     1.3223    -0.2158 N.am    
  16 C16           -3.7255     2.0317     0.0568 C.2     
  17 O17           -3.8001     3.2165     0.3202 O.2     
  18 C18           -6.1491     1.9721    -0.1128 C.3     
  19 C19           -6.6838     1.8058     1.2863 C.ar    
  20 C20           -6.3963     2.7512     2.2530 C.ar    
  21 C21           -6.8867     2.5987     3.5364 C.ar    
  22 C22           -7.6650     1.5010     3.8530 C.ar    
  23 C23           -7.9533     0.5561     2.8861 C.ar    
  24 C24           -7.4665     0.7109     1.6016 C.ar    
  25 C25           -4.6352    -0.1735    -2.1108 C.ar    
  26 C26           -3.9690    -1.2416    -2.6828 C.ar    
  27 C27           -3.8478    -1.3261    -4.0563 C.ar    
  28 C28           -4.3952    -0.3382    -4.8619 C.ar    
  29 C29           -5.0631     0.7325    -4.2855 C.ar    
  30 C30           -5.1865     0.8095    -2.9117 C.ar    
  31 O31           -4.2769    -0.4188    -6.2133 O.3     
  32 H32            0.9468    -0.5273    -0.0083 H       
  33 H33           -1.1575    -1.8010     0.0004 H       
  34 H34           -1.2349     3.1509     0.0374 H       
  35 H35            2.3713     0.6272     0.9204 H       
  36 H36            2.2419     0.4948    -0.8497 H       
  37 H37            4.4848     1.3193    -0.1647 H       
  38 H38            3.6043     2.5454    -1.1094 H       
  39 H39            3.8168     2.4299     1.9348 H       
  40 H40            4.6479     3.5885     0.8675 H       
  41 H41            2.5791     4.5634     1.8728 H       
  42 H42            2.4753     4.4673     0.0978 H       
  43 H43            0.3787     3.6666     1.1424 H       
  44 H44            1.2970     2.4559     2.0690 H       
  45 H45           -3.6863    -1.6075     0.4197 H       
  46 H46           -5.6766    -0.5953    -0.3005 H       
  47 H47           -6.0467     3.0334    -0.3389 H       
  48 H48           -6.8388     1.5144    -0.8220 H       
  49 H49           -5.7882     3.6088     2.0056 H       
  50 H50           -6.6615     3.3370     4.2918 H       
  51 H51           -8.0476     1.3815     4.8559 H       
  52 H52           -8.5611    -0.3017     3.1336 H       
  53 H53           -7.6917    -0.0274     0.8462 H       
  54 H54           -3.5428    -2.0103    -2.0552 H       
  55 H55           -3.3271    -2.1604    -4.5026 H       
  56 H56           -5.4901     1.5029    -4.9105 H       
  57 H57           -5.7063     1.6428    -2.4626 H       
  58 H58           -5.0006    -0.8942    -6.6438 H       
@<TRIPOS>BOND
   1    1    2 ar
   2    1    7 1
   3    1    6 ar
   4    2    3 ar
   5    2   32 1
   6    3    4 ar
   7    3   33 1
   8    4    5 ar
   9    4   13 1
  10    5    6 ar
  11    5   16 1
  12    6   34 1
  13    7    8 1
  14    7   12 1
  15    8    9 1
  16    8   35 1
  17    8   36 1
  18    9   10 1
  19    9   37 1
  20    9   38 1
  21   10   11 1
  22   10   39 1
  23   10   40 1
  24   11   12 1
  25   11   41 1
  26   11   42 1
  27   12   43 1
  28   12   44 1
  29   13   14 1
  30   13   45 1
  31   14   15 1
  32   14   25 1
  33   14   46 1
  34   15   16 am
  35   15   18 1
  36   16   17 2
  37   18   19 1
  38   18   47 1
  39   18   48 1
  40   19   20 ar
  41   19   24 ar
  42   20   21 ar
  43   20   49 1
  44   21   22 ar
  45   21   50 1
  46   22   23 ar
  47   22   51 1
  48   23   24 ar
  49   23   52 1
  50   24   53 1
  51   25   26 ar
  52   25   30 ar
  53   26   27 ar
  54   26   54 1
  55   27   28 ar
  56   27   55 1
  57   28   29 ar
  58   28   31 1
  59   29   30 ar
  60   29   56 1
  61   30   57 1
  62   31   58 1

#	End of record

