#	Name: ASD02198792
#	Creating user name:	WinNT
#	Creation time:	15. 06. 2019 20:20

#	Modifying user name:	WinNT
#	Modification time:	15. 06. 2019 20:20

#	Program:	/corina/corina34_cracker 3.40 0067  02.08.2006

@<TRIPOS>MOLECULE
ASD02198792
  50   54    0    0    0
SMALL
NO_CHARGES


@<TRIPOS>ATOM
   1 C1            -0.0433     1.5015    -0.1152 C.2     
   2 C2            -0.0730     0.1618     0.0973 C.2     
   3 N3             1.0715    -0.5397     0.2601 N.pl3   
   4 N4             2.2360    -0.0049     0.2262 N.2     
   5 C5             2.4074     1.2845     0.0276 C.2     
   6 C6             1.2216     2.1356    -0.1606 C.2     
   7 C7             0.9801    -1.9177     0.4769 C.ar    
   8 C8             1.5824    -2.4884     1.5982 C.ar    
   9 C9             1.4914    -3.8523     1.8119 C.ar    
  10 C10            0.7981    -4.6524     0.9062 C.ar    
  11 C11            0.1976    -4.0774    -0.2133 C.ar    
  12 C12            0.2846    -2.7173    -0.4216 C.ar    
  13 C13            3.7644     1.8668    -0.0050 C.2     
  14 N14            4.3064     2.6067    -1.0182 N.pl3   
  15 N15            5.6080     2.9588    -0.6402 N.2     
  16 C16            5.8517     2.4597     0.5454 C.2     
  17 C17            4.7200     1.7715     0.9828 C.2     
  18 C18            3.6736     2.9507    -2.2195 C.ar    
  19 C19            3.8072     4.2338    -2.7337 C.ar    
  20 C20            3.1824     4.5698    -3.9187 C.ar    
  21 C21            2.4244     3.6301    -4.5930 C.ar    
  22 C22            2.2891     2.3517    -4.0834 C.ar    
  23 C23            2.9161     2.0078    -2.9018 C.ar    
  24 O24            1.3245     3.3386    -0.3488 O.2     
  25 C25            0.6993    -6.1152     1.1324 C.ar    
  26 C26            0.0087    -6.9353     0.2362 C.ar    
  27 C27            1.2991    -6.7119     2.2444 C.ar    
  28 N28            1.1869    -8.0189     2.4076 N.ar    
  29 C29            0.5215    -8.7558     1.5402 C.ar    
  30 N30           -0.0546    -8.2338     0.4756 N.ar    
  31 O31            2.2584    -1.7053     2.4797 O.3     
  32 C32            2.8500    -2.3573     3.6054 C.3     
  33 H33           -0.9547     2.0651    -0.2497 H       
  34 H34           -1.0227    -0.3507     0.1372 H       
  35 H35            1.9574    -4.2961     2.6793 H       
  36 H36           -0.3395    -4.6975    -0.9157 H       
  37 H37           -0.1815    -2.2739    -1.2891 H       
  38 H38            6.7751     2.5660     1.0953 H       
  39 H39            4.6141     1.2523     1.9239 H       
  40 H40            4.3987     4.9682    -2.2073 H       
  41 H41            3.2856     5.5675    -4.3189 H       
  42 H42            1.9368     3.8952    -5.5195 H       
  43 H43            1.6962     1.6201    -4.6122 H       
  44 H44            2.8103     1.0092    -2.5044 H       
  45 H45           -0.4662    -6.5148    -0.6379 H       
  46 H46            1.8460    -6.1149     2.9591 H       
  47 H47            0.4499    -9.8208     1.7047 H       
  48 H48            3.3573    -1.6196     4.2272 H       
  49 H49            2.0732    -2.8516     4.1886 H       
  50 H50            3.5709    -3.0978     3.2588 H       
@<TRIPOS>BOND
   1    1    2 2
   2    1    6 1
   3    1   33 1
   4    2    3 1
   5    2   34 1
   6    3    4 1
   7    3    7 1
   8    4    5 2
   9    5    6 1
  10    5   13 1
  11    6   24 2
  12    7    8 ar
  13    7   12 ar
  14    8    9 ar
  15    8   31 1
  16    9   10 ar
  17    9   35 1
  18   10   11 ar
  19   10   25 1
  20   11   12 ar
  21   11   36 1
  22   12   37 1
  23   13   14 1
  24   13   17 2
  25   14   15 1
  26   14   18 1
  27   15   16 2
  28   16   17 1
  29   16   38 1
  30   17   39 1
  31   18   19 ar
  32   18   23 ar
  33   19   20 ar
  34   19   40 1
  35   20   21 ar
  36   20   41 1
  37   21   22 ar
  38   21   42 1
  39   22   23 ar
  40   22   43 1
  41   23   44 1
  42   25   26 ar
  43   25   27 ar
  44   26   30 ar
  45   26   45 1
  46   27   28 ar
  47   27   46 1
  48   28   29 ar
  49   29   30 ar
  50   29   47 1
  51   31   32 1
  52   32   48 1
  53   32   49 1
  54   32   50 1

#	End of record

