#	Name: ASD01914328
#	Creating user name:	WinNT
#	Creation time:	15. 06. 2019 20:03

#	Modifying user name:	WinNT
#	Modification time:	15. 06. 2019 20:03

#	Program:	/corina/corina34_cracker 3.40 0067  02.08.2006

@<TRIPOS>MOLECULE
ASD01914328
  47   50    0    0    0
SMALL
NO_CHARGES


@<TRIPOS>ATOM
   1 C1             0.0034     1.2699     0.0016 C.2     
   2 N2             0.0086    -0.0402     0.0096 N.2     
   3 N3            -1.3174    -0.4813     0.0164 N.pl3   
   4 C4            -2.1157     0.6112     0.0197 C.2     
   5 C5            -1.3285     1.7035     0.0123 C.2     
   6 C6            -3.6248     0.5551     0.0408 C.3     
   7 N7            -4.0077    -0.8473    -0.2085 N.am    
   8 C8            -5.0203    -1.1526    -1.0440 C.2     
   9 O9            -5.2514    -2.3138    -1.3201 O.2     
  10 C10           -5.8492    -0.0763    -1.6242 C.ar    
  11 C11           -6.3484    -0.1990    -2.9227 C.ar    
  12 C12            1.2211     2.1577    -0.0104 C.3     
  13 O13            0.8122     3.5270    -0.0161 O.3     
  14 C14            1.7959     4.4646    -0.0271 C.ar    
  15 C15            1.4703     5.8132    -0.0331 C.ar    
  16 C16            2.4721     6.7643    -0.0443 C.ar    
  17 C17            3.7983     6.3732    -0.0496 C.ar    
  18 C18            4.1253     5.0298    -0.0442 C.ar    
  19 C19            3.1273     4.0748    -0.0267 C.ar    
  20 C20           -1.7926    -1.8676     0.0137 C.3     
  21 C21           -3.2513    -1.9025     0.4827 C.3     
  22 C22           -6.1411     1.0649    -0.8742 C.ar    
  23 C23           -6.9150     2.0662    -1.4204 C.ar    
  24 C24           -7.4037     1.9416    -2.7120 C.ar    
  25 C25           -7.1213     0.8083    -3.4592 C.ar    
  26 F26           -8.1625     2.9256    -3.2424 F       
  27 C27           -1.6977    -2.4376    -1.4030 C.3     
  28 H28           -1.6639     2.7301     0.0091 H       
  29 H29           -3.9953     0.8742     1.0150 H       
  30 H30           -4.0318     1.1963    -0.7411 H       
  31 H31           -6.1290    -1.0814    -3.5055 H       
  32 H32            1.8224     1.9618     0.8773 H       
  33 H33            1.8123     1.9514    -0.9026 H       
  34 H34            0.4346     6.1191    -0.0293 H       
  35 H35            2.2192     7.8143    -0.0493 H       
  36 H36            4.5800     7.1184    -0.0584 H       
  37 H37            5.1620     4.7269    -0.0490 H       
  38 H38            3.3833     3.0256    -0.0224 H       
  39 H39           -1.1789    -2.4642     0.6886 H       
  40 H40           -3.2918    -1.7341     1.5588 H       
  41 H41           -3.6857    -2.8745     0.2490 H       
  42 H42           -5.7615     1.1626     0.1322 H       
  43 H43           -7.1414     2.9492    -0.8413 H       
  44 H44           -7.5042     0.7164    -4.4649 H       
  45 H45           -0.6607    -2.4087    -1.7375 H       
  46 H46           -2.0513    -3.4686    -1.4043 H       
  47 H47           -2.3135    -1.8414    -2.0765 H       
@<TRIPOS>BOND
   1    1    2 2
   2    1   12 1
   3    1    5 1
   4    2    3 1
   5    3    4 1
   6    3   20 1
   7    4    5 2
   8    4    6 1
   9    5   28 1
  10    6    7 1
  11    6   29 1
  12    6   30 1
  13    7    8 am
  14    7   21 1
  15    8    9 2
  16    8   10 1
  17   10   11 ar
  18   10   22 ar
  19   11   25 ar
  20   11   31 1
  21   12   13 1
  22   12   32 1
  23   12   33 1
  24   13   14 1
  25   14   15 ar
  26   14   19 ar
  27   15   16 ar
  28   15   34 1
  29   16   17 ar
  30   16   35 1
  31   17   18 ar
  32   17   36 1
  33   18   19 ar
  34   18   37 1
  35   19   38 1
  36   20   21 1
  37   20   27 1
  38   20   39 1
  39   21   40 1
  40   21   41 1
  41   22   23 ar
  42   22   42 1
  43   23   24 ar
  44   23   43 1
  45   24   25 ar
  46   24   26 1
  47   25   44 1
  48   27   45 1
  49   27   46 1
  50   27   47 1

#	End of record

