#	Name: ASD01916274
#	Creating user name:	WinNT
#	Creation time:	15. 06. 2019 20:07

#	Modifying user name:	WinNT
#	Modification time:	15. 06. 2019 20:07

#	Program:	/corina/corina34_cracker 3.40 0067  02.08.2006

@<TRIPOS>MOLECULE
ASD01916274
  28   30    0    0    0
SMALL
NO_CHARGES


@<TRIPOS>ATOM
   1 C1             0.0975     1.3424     0.5023 C.2     
   2 N2             0.1208    -0.0009     0.5169 N.am    
   3 C3             1.2075    -0.6756     0.0134 C.2     
   4 C4             2.3260     0.0988    -0.5334 C.2     
   5 C5             2.2407     1.4442    -0.5189 C.2     
   6 N6             1.1207     2.0559     0.0024 N.am    
   7 N7             0.9863    -1.9664     0.1439 N.2     
   8 C8            -0.2099    -2.1548     0.7166 C.2     
   9 C9            -0.7670    -0.9515     0.9579 C.2     
  10 O10           -0.8729     1.9252     0.9467 O.2     
  11 C11            1.0472     3.4550     0.0107 C.ar    
  12 C12            0.4930     4.1285    -1.0698 C.ar    
  13 C13            0.4214     5.5076    -1.0598 C.ar    
  14 C14            0.9023     6.2189     0.0268 C.ar    
  15 C15            1.4558     5.5492     1.1051 C.ar    
  16 C16            1.5232     4.1698     1.1018 C.ar    
  17 F17            0.8318     7.5681     0.0345 F       
  18 F18            3.4152    -0.5204    -1.0387 F       
  19 C19           -0.8299    -3.4903     1.0377 C.3     
  20 Cl20          -0.3477    -3.9924     2.7009 Cl      
  21 H21            3.0486     2.0418    -0.9146 H       
  22 H22           -1.7295    -0.7693     1.4124 H       
  23 H23            0.1184     3.5741    -1.9177 H       
  24 H24           -0.0096     6.0318    -1.9000 H       
  25 H25            1.8306     6.1058     1.9514 H       
  26 H26            1.9502     3.6476     1.9453 H       
  27 H27           -1.9155    -3.4095     0.9830 H       
  28 H28           -0.4841    -4.2335     0.3193 H       
@<TRIPOS>BOND
   1    1    2 am
   2    1    6 am
   3    1   10 2
   4    2    3 1
   5    2    9 1
   6    3    4 1
   7    3    7 2
   8    4    5 2
   9    4   18 1
  10    5    6 1
  11    5   21 1
  12    6   11 1
  13    7    8 1
  14    8    9 2
  15    8   19 1
  16    9   22 1
  17   11   12 ar
  18   11   16 ar
  19   12   13 ar
  20   12   23 1
  21   13   14 ar
  22   13   24 1
  23   14   15 ar
  24   14   17 1
  25   15   16 ar
  26   15   25 1
  27   16   26 1
  28   19   20 1
  29   19   27 1
  30   19   28 1

#	End of record

