#	Name: ASD03331325
#	Creating user name:	WinNT
#	Creation time:	15. 06. 2019 20:39

#	Modifying user name:	WinNT
#	Modification time:	15. 06. 2019 20:39

#	Program:	/corina/corina34_cracker 3.40 0067  02.08.2006

@<TRIPOS>MOLECULE
ASD03331325
  55   58    0    0    0
SMALL
NO_CHARGES


@<TRIPOS>ATOM
   1 C1            -0.0180     1.4750     0.0102 C.ar    
   2 C2             0.0021    -0.0041     0.0020 C.2     
   3 N3            -1.0191    -0.8131     0.3844 N.pl3   
   4 C4            -0.6003    -2.1035     0.2289 C.2     
   5 C5             0.6674    -2.0586    -0.2472 C.2     
   6 N6             1.0097    -0.7562    -0.3820 N.2     
   7 C7             1.5180    -3.2188    -0.5662 C.2     
   8 N8             2.7672    -3.0298    -1.0355 N.am    
   9 C9            -0.9799     2.1577     0.7551 C.ar    
  10 O10            1.0929    -4.3470    -0.4059 O.2     
  11 C11            3.6130    -4.1832    -1.3525 C.3     
  12 C12            3.3095    -4.6629    -2.7733 C.3     
  13 C13            5.0631    -3.7846    -1.2560 C.2     
  14 C14            3.5949    -3.5333    -3.7649 C.3     
  15 C15           -2.3517    -0.4580     0.8804 C.3     
  16 C16           -3.2455    -1.7011     0.7738 C.3     
  17 O17           -2.5732    -2.8322     1.3340 O.3     
  18 C18           -1.4605    -3.2972     0.5553 C.3     
  19 C19            4.1927    -5.8676    -3.1045 C.3     
  20 C20            1.8372    -5.0677    -2.8714 C.3     
  21 C21           -0.9941     3.5389     0.7590 C.ar    
  22 C22           -0.0536     4.2460     0.0232 C.ar    
  23 C23            0.9026     3.5709    -0.7179 C.ar    
  24 C24            0.9288     2.1919    -0.7227 C.ar    
  25 C25            6.0746    -4.5232    -0.7403 C.2     
  26 F26           -0.0709     5.5968     0.0292 F       
  27 F27           -1.9246     4.2022     1.4797 F       
  28 O28            5.6075    -2.6313    -1.6687 O.3     
  29 N29            6.7977    -2.6009    -1.4572 N.2     
  30 C30            7.2121    -3.6975    -0.8913 C.2     
  31 C31            8.6249    -4.0228    -0.4797 C.3     
  32 H32            3.1063    -2.1300    -1.1633 H       
  33 H33           -1.7123     1.6074     1.3272 H       
  34 H34            3.4096    -4.9880    -0.6461 H       
  35 H35            4.6438    -3.2449    -3.6951 H       
  36 H36            3.3787    -3.8750    -4.7771 H       
  37 H37            2.9657    -2.6751    -3.5290 H       
  38 H38           -2.2849    -0.1406     1.9210 H       
  39 H39           -2.7674     0.3475     0.2750 H       
  40 H40           -4.1746    -1.5268     1.3165 H       
  41 H41           -3.4709    -1.8963    -0.2746 H       
  42 H42           -1.8200    -3.7564    -0.3656 H       
  43 H43           -0.8842    -4.0221     1.1302 H       
  44 H44            3.9893    -6.6724    -2.3980 H       
  45 H45            3.9765    -6.2093    -4.1167 H       
  46 H46            5.2416    -5.5792    -3.0346 H       
  47 H47            1.2080    -4.2095    -2.6355 H       
  48 H48            1.6210    -5.4095    -3.8836 H       
  49 H49            1.6339    -5.8725    -2.1649 H       
  50 H50            1.6319     4.1257    -1.2895 H       
  51 H51            1.6750     1.6673    -1.3010 H       
  52 H52            6.0237    -5.5135    -0.3122 H       
  53 H53            8.7908    -3.6894     0.5447 H       
  54 H54            8.7825    -5.0995    -0.5414 H       
  55 H55            9.3232    -3.5147    -1.1448 H       
@<TRIPOS>BOND
   1    1    2 1
   2    1    9 ar
   3    1   24 ar
   4    2    3 1
   5    2    6 2
   6    3    4 1
   7    3   15 1
   8    4    5 2
   9    4   18 1
  10    5    6 1
  11    5    7 1
  12    7    8 am
  13    7   10 2
  14    8   11 1
  15    8   32 1
  16    9   21 ar
  17    9   33 1
  18   11   12 1
  19   11   13 1
  20   11   34 1
  21   12   14 1
  22   12   19 1
  23   12   20 1
  24   13   25 2
  25   13   28 1
  26   14   35 1
  27   14   36 1
  28   14   37 1
  29   15   16 1
  30   15   38 1
  31   15   39 1
  32   16   17 1
  33   16   40 1
  34   16   41 1
  35   17   18 1
  36   18   42 1
  37   18   43 1
  38   19   44 1
  39   19   45 1
  40   19   46 1
  41   20   47 1
  42   20   48 1
  43   20   49 1
  44   21   22 ar
  45   21   27 1
  46   22   23 ar
  47   22   26 1
  48   23   24 ar
  49   23   50 1
  50   24   51 1
  51   25   30 1
  52   25   52 1
  53   28   29 1
  54   29   30 2
  55   30   31 1
  56   31   53 1
  57   31   54 1
  58   31   55 1

#	End of record

