#	Name: ASD03330671
#	Creating user name:	WinNT
#	Creation time:	15. 06. 2019 20:37

#	Modifying user name:	WinNT
#	Modification time:	15. 06. 2019 20:37

#	Program:	/corina/corina34_cracker 3.40 0067  02.08.2006

@<TRIPOS>MOLECULE
ASD03330671
  63   65    0    0    0
SMALL
NO_CHARGES


@<TRIPOS>ATOM
   1 C1            -0.4872     1.7907    -0.5671 C.2     
   2 N2            -0.5827     0.4637    -0.8452 N.pl3   
   3 C3             0.8396     2.0987    -0.5327 C.2     
   4 N4             1.5323     0.9721    -0.8046 N.2     
   5 C5             0.6870    -0.0149    -0.9996 C.2     
   6 C6             1.0482    -1.4040    -1.3297 C.2     
   7 C7             1.4159     3.4253    -0.2501 C.2     
   8 O8             0.6847     4.3693    -0.0190 O.2     
   9 C9             3.3261     4.9112     0.0334 C.3     
  10 N10            2.7533     3.5925    -0.2476 N.am    
  11 C11            3.4466     5.1030     1.5466 C.3     
  12 C12            4.3144     3.9884     2.1345 C.3     
  13 C13            4.0914     6.4593     1.8390 C.3     
  14 C14            2.0545     5.0531     2.1794 C.3     
  15 C15            4.6919     5.0100    -0.5957 C.2     
  16 N16            5.2537     6.2179    -0.8007 N.am    
  17 O17            5.2856     4.0026    -0.9177 O.2     
  18 C18            6.5369     6.3197    -1.5002 C.3     
  19 C19           -1.8317    -0.2966    -0.9420 C.3     
  20 C20           -2.8266     0.4800    -1.8102 C.3     
  21 C21           -3.6187     1.4525    -0.9422 C.3     
  22 N22           -2.7963     1.9721     0.1521 N.3     
  23 C23           -1.6453     2.7317    -0.3585 C.3     
  24 C24           -3.5992     2.7883     1.0724 C.3     
  25 C25            1.7706    -1.6744    -2.6201 C.3     
  26 C26            0.7300    -2.3593    -0.4797 C.2     
  27 C27            1.0576    -3.8060    -0.7143 C.3     
  28 N28            1.3798    -4.0310    -2.1290 N.3     
  29 C29            2.4017    -3.0682    -2.5759 C.3     
  30 H30            2.6787     5.6843    -0.3804 H       
  31 H31            3.3365     2.8396    -0.4318 H       
  32 H32            5.3061     4.0240     1.6836 H       
  33 H33            4.4002     4.1250     3.2125 H       
  34 H34            3.8550     3.0221     1.9261 H       
  35 H35            3.4749     7.2532     1.4175 H       
  36 H36            4.1744     6.5973     2.9171 H       
  37 H37            5.0844     6.4937     1.3908 H       
  38 H38            1.5951     4.0868     1.9711 H       
  39 H39            2.1403     5.1897     3.2574 H       
  40 H40            1.4363     5.8472     1.7606 H       
  41 H41            4.8084     7.0197    -0.4851 H       
  42 H42            6.4388     5.9015    -2.5020 H       
  43 H43            6.8300     7.3672    -1.5708 H       
  44 H44            7.2965     5.7663    -0.9482 H       
  45 H45           -1.6329    -1.2676    -1.3956 H       
  46 H46           -2.2504    -0.4378     0.0544 H       
  47 H47           -2.2837     1.0359    -2.5746 H       
  48 H48           -3.5120    -0.2189    -2.2896 H       
  49 H49           -3.9614     2.2840    -1.5581 H       
  50 H50           -4.4840     0.9368    -0.5256 H       
  51 H51           -1.3660     3.4991     0.3633 H       
  52 H52           -1.9095     3.2003    -1.3065 H       
  53 H53           -4.3987     2.1795     1.4947 H       
  54 H54           -2.9639     3.1616     1.8756 H       
  55 H55           -4.0309     3.6294     0.5299 H       
  56 H56            1.0645    -1.6221    -3.4489 H       
  57 H57            2.5513    -0.9271    -2.7622 H       
  58 H58            0.2099    -2.0894     0.4276 H       
  59 H59            1.9132    -4.0865    -0.1000 H       
  60 H60            0.2005    -4.4197    -0.4372 H       
  61 H61            1.6858    -4.9800    -2.2836 H       
  62 H62            2.7516    -3.3414    -3.5714 H       
  63 H63            3.2383    -3.0715    -1.8771 H       
@<TRIPOS>BOND
   1    1    2 1
   2    1    3 2
   3    1   23 1
   4    2   19 1
   5    2    5 1
   6    3    4 1
   7    3    7 1
   8    4    5 2
   9    5    6 1
  10    6   25 1
  11    6   26 2
  12    7    8 2
  13    7   10 am
  14    9   10 1
  15    9   11 1
  16    9   15 1
  17    9   30 1
  18   10   31 1
  19   11   12 1
  20   11   13 1
  21   11   14 1
  22   12   32 1
  23   12   33 1
  24   12   34 1
  25   13   35 1
  26   13   36 1
  27   13   37 1
  28   14   38 1
  29   14   39 1
  30   14   40 1
  31   15   16 am
  32   15   17 2
  33   16   18 1
  34   16   41 1
  35   18   42 1
  36   18   43 1
  37   18   44 1
  38   19   20 1
  39   19   45 1
  40   19   46 1
  41   20   21 1
  42   20   47 1
  43   20   48 1
  44   21   22 1
  45   21   49 1
  46   21   50 1
  47   22   23 1
  48   22   24 1
  49   23   51 1
  50   23   52 1
  51   24   53 1
  52   24   54 1
  53   24   55 1
  54   25   29 1
  55   25   56 1
  56   25   57 1
  57   26   27 1
  58   26   58 1
  59   27   28 1
  60   27   59 1
  61   27   60 1
  62   28   29 1
  63   28   61 1
  64   29   62 1
  65   29   63 1

#	End of record

