#	Name: ASD06710026
#	Creating user name:	WinNT
#	Creation time:	15. 06. 2019 21:08

#	Modifying user name:	WinNT
#	Modification time:	15. 06. 2019 21:08

#	Program:	/corina/corina34_cracker 3.40 0067  02.08.2006

@<TRIPOS>MOLECULE
ASD06710026
  78   79    0    0    0
SMALL
NO_CHARGES


@<TRIPOS>ATOM
   1 C1             0.2997     1.0478     1.2386 C.ar    
   2 C2             0.0052     0.0224     0.3519 C.ar    
   3 C3             0.9026    -0.2991    -0.6560 C.ar    
   4 C4             2.0869     0.4022    -0.7743 C.ar    
   5 C5             2.3783     1.4235     0.1110 C.ar    
   6 C6             1.4853     1.7462     1.1161 C.ar    
   7 C7             2.5185     4.1187    -1.1153 C.ar    
   8 C8             3.3762     3.6598    -0.1326 C.ar    
   9 C9             3.6714     2.1863    -0.0198 C.3     
  10 C10            2.2463     5.4689    -1.2207 C.ar    
  11 C11            2.8342     6.3648    -0.3396 C.ar    
  12 C12            3.6948     5.9019     0.6452 C.ar    
  13 C13            3.9638     4.5507     0.7465 C.ar    
  14 O14           -1.1603    -0.6664     0.4707 O.3     
  15 O15            2.5684     7.6936    -0.4415 O.3     
  16 C16           -1.3971    -1.7092    -0.4773 C.3     
  17 C17           -2.7483    -2.3655    -0.1866 C.3     
  18 C18           -2.7811    -2.8431     1.2666 C.3     
  19 O19           -3.8116    -1.4008    -0.4031 O.3     
  20 C20            3.2090     8.5575     0.4994 C.3     
  21 C21            2.7914    10.0045     0.2298 C.3     
  22 O22            1.3687    10.1521     0.4796 O.3     
  23 Cl23          -4.3126    -3.7455     1.5682 Cl      
  24 C24            3.5715    10.9411     1.1545 C.3     
  25 O25            3.2636    12.3198     0.8186 O.3     
  26 C26           -4.9994    -1.8822    -0.8021 C.2     
  27 C27           -6.1503    -0.9408    -1.0468 C.3     
  28 O28           -5.1457    -3.0705    -0.9649 O.2     
  29 N29           -7.3287    -1.7081    -1.4718 N.4     
  30 C30            0.5425     9.9355    -0.5559 C.2     
  31 C31           -0.9472    10.0702    -0.3722 C.3     
  32 N32           -1.6252     9.7845    -1.6437 N.4     
  33 O33            0.9932     9.6326    -1.6353 O.2     
  34 C34            3.8708    13.2735     1.5421 C.2     
  35 C35            3.6002    14.7271     1.2509 C.3     
  36 O36            4.6343    12.9665     2.4268 O.2     
  37 N37            4.3793    15.5644     2.1728 N.4     
  38 C38            4.5399     1.9332     1.2141 C.3     
  39 C39            4.4154     1.7180    -1.2720 C.3     
  40 H40           -0.3994     1.3029     2.0214 H       
  41 H41            0.6758    -1.0972    -1.3473 H       
  42 H42            2.7859     0.1524    -1.5588 H       
  43 H43            1.7152     2.5443     1.8064 H       
  44 H44            2.0645     3.4213    -1.8038 H       
  45 H45            1.5765     5.8268    -1.9886 H       
  46 H46            4.1541     6.5974     1.3321 H       
  47 H47            4.6334     4.1898     1.5133 H       
  48 H48           -1.4057    -1.2903    -1.4836 H       
  49 H49           -0.6067    -2.4558    -0.4012 H       
  50 H50           -2.8893    -3.2171    -0.8522 H       
  51 H51           -1.9304    -3.4986     1.4529 H       
  52 H52           -2.7293    -1.9823     1.9332 H       
  53 H53            2.9138     8.2764     1.5103 H       
  54 H54            4.2905     8.4666     0.3983 H       
  55 H55            3.0062    10.2572    -0.8085 H       
  56 H56            3.2895    10.7477     2.1895 H       
  57 H57            4.6403    10.7669     1.0305 H       
  58 H58           -6.3801    -0.4012    -0.1280 H       
  59 H59           -5.8787    -0.2300    -1.8273 H       
  60 H60           -8.0994    -1.0777    -1.6357 H       
  61 H61           -7.1161    -2.2075    -2.3223 H       
  62 H62           -7.5802    -2.3660    -0.7493 H       
  63 H63           -1.2851     9.3642     0.3864 H       
  64 H64           -1.1838    11.0857    -0.0546 H       
  65 H65           -1.4062     8.8444    -1.9378 H       
  66 H66           -2.6226     9.8747    -1.5207 H       
  67 H67           -1.3124    10.4380    -2.3460 H       
  68 H68            3.8887    14.9518     0.2241 H       
  69 H69            2.5379    14.9326     1.3831 H       
  70 H70            4.1122    15.3564     3.1233 H       
  71 H71            5.3626    15.3743     2.0504 H       
  72 H72            4.1981    16.5377     1.9778 H       
  73 H73            4.0098     2.2669     2.1062 H       
  74 H74            4.7534     0.8674     1.2957 H       
  75 H75            5.4752     2.4849     1.1195 H       
  76 H76            5.3507     2.2697    -1.3666 H       
  77 H77            4.6289     0.6522    -1.1904 H       
  78 H78            3.7967     1.8983    -2.1510 H       
@<TRIPOS>BOND
   1    1    2 ar
   2    1    6 ar
   3    1   40 1
   4    2    3 ar
   5    2   14 1
   6    3    4 ar
   7    3   41 1
   8    4    5 ar
   9    4   42 1
  10    5    6 ar
  11    5    9 1
  12    6   43 1
  13    7    8 ar
  14    7   10 ar
  15    7   44 1
  16    8    9 1
  17    8   13 ar
  18    9   38 1
  19    9   39 1
  20   10   11 ar
  21   10   45 1
  22   11   12 ar
  23   11   15 1
  24   12   13 ar
  25   12   46 1
  26   13   47 1
  27   14   16 1
  28   15   20 1
  29   16   17 1
  30   16   48 1
  31   16   49 1
  32   17   18 1
  33   17   19 1
  34   17   50 1
  35   18   23 1
  36   18   51 1
  37   18   52 1
  38   19   26 1
  39   20   21 1
  40   20   53 1
  41   20   54 1
  42   21   24 1
  43   21   22 1
  44   21   55 1
  45   22   30 1
  46   24   25 1
  47   24   56 1
  48   24   57 1
  49   25   34 1
  50   26   27 1
  51   26   28 2
  52   27   29 1
  53   27   58 1
  54   27   59 1
  55   29   60 1
  56   29   61 1
  57   29   62 1
  58   30   31 1
  59   30   33 2
  60   31   32 1
  61   31   63 1
  62   31   64 1
  63   32   65 1
  64   32   66 1
  65   32   67 1
  66   34   35 1
  67   34   36 2
  68   35   37 1
  69   35   68 1
  70   35   69 1
  71   37   70 1
  72   37   71 1
  73   37   72 1
  74   38   73 1
  75   38   74 1
  76   38   75 1
  77   39   76 1
  78   39   77 1
  79   39   78 1

#	End of record

