#	Name: ASD01230083
#	Creating user name:	WinNT
#	Creation time:	15. 06. 2019 19:11

#	Modifying user name:	WinNT
#	Modification time:	15. 06. 2019 19:11

#	Program:	/corina/corina34_cracker 3.40 0067  02.08.2006

@<TRIPOS>MOLECULE
ASD01230083
  46   49    0    0    0
SMALL
NO_CHARGES


@<TRIPOS>ATOM
   1 C1            -0.0467     1.4296    -0.5561 C.ar    
   2 C2            -0.0156     0.0358    -0.5145 C.ar    
   3 C3            -1.2743    -0.7322    -0.3728 C.2     
   4 N4            -2.4323    -0.0970    -0.2853 N.2     
   5 C5            -3.5725    -0.7734    -0.1581 C.2     
   6 N6            -3.5775    -2.1395    -0.1145 N.pl3   
   7 C7            -2.4015    -2.8276    -0.2019 C.2     
   8 C8            -1.2415    -2.1420    -0.3367 C.2     
   9 C9             1.2054    -0.6320    -0.6072 C.ar    
  10 C10            2.3745     0.0890    -0.7395 C.ar    
  11 C11            2.3371     1.4714    -0.7802 C.ar    
  12 C12            1.1291     2.1394    -0.6887 C.ar    
  13 C13           -4.9149    -0.3596    -0.0465 C.2     
  14 C14           -5.6945    -1.5250     0.0627 C.2     
  15 N15           -4.9038    -2.5648     0.0221 N.2     
  16 C16           -5.4050     1.0216    -0.0446 C.2     
  17 O17           -4.6198     1.9463    -0.1467 O.2     
  18 C18           -7.1863     2.5932     0.1883 C.2     
  19 N19           -6.7251     1.2680     0.0702 N.am    
  20 C20           -8.4870     2.9101     0.1626 C.2     
  21 S21           -8.6734     4.6502     0.3365 S.3     
  22 C22           -6.9303     4.8596     0.4374 C.2     
  23 C23           -6.3284     3.6731     0.3463 C.2     
  24 S24           -6.1042     6.4032     0.6361 S.o2    
  25 N25           -5.8037     6.9971    -0.8802 N.am    
  26 O26           -7.0429     7.2866     1.2343 O.2     
  27 O27           -4.8380     6.1097     1.2103 O.2     
  28 Cl28          -9.7899     1.7768    -0.0153 Cl      
  29 C29            3.6177     2.2527    -0.9243 C.3     
  30 F30            3.8918     2.4525    -2.2816 F       
  31 F31            3.4821     3.4915    -0.2886 F       
  32 F32            4.6679     1.5394    -0.3366 F       
  33 C33           -2.3950    -4.3339    -0.1544 C.3     
  34 F34           -1.0797    -4.7981    -0.2620 F       
  35 F35           -2.9439    -4.7646     1.0582 F       
  36 F36           -3.1554    -4.8372    -1.2154 F       
  37 H37           -0.9896     1.9520    -0.4892 H       
  38 H38           -0.3012    -2.6684    -0.4078 H       
  39 H39            1.2359    -1.7111    -0.5752 H       
  40 H40            3.3206    -0.4269    -0.8110 H       
  41 H41            1.1063     3.2187    -0.7210 H       
  42 H42           -6.7693    -1.5557     0.1641 H       
  43 H43           -7.3575     0.5325     0.0715 H       
  44 H44           -5.2550     3.5613     0.3882 H       
  45 H45           -5.7700     7.9552    -1.0280 H       
  46 H46           -5.6613     6.3869    -1.6207 H       
@<TRIPOS>BOND
   1    1    2 ar
   2    1   12 ar
   3    1   37 1
   4    2    3 1
   5    2    9 ar
   6    3    4 2
   7    3    8 1
   8    4    5 1
   9    5    6 1
  10    5   13 2
  11    6    7 1
  12    6   15 1
  13    7   33 1
  14    7    8 2
  15    8   38 1
  16    9   10 ar
  17    9   39 1
  18   10   11 ar
  19   10   40 1
  20   11   29 1
  21   11   12 ar
  22   12   41 1
  23   13   14 1
  24   13   16 1
  25   14   15 2
  26   14   42 1
  27   16   17 2
  28   16   19 am
  29   18   19 1
  30   18   20 2
  31   18   23 1
  32   19   43 1
  33   20   21 1
  34   20   28 1
  35   21   22 1
  36   22   23 2
  37   22   24 1
  38   23   44 1
  39   24   25 am
  40   24   26 2
  41   24   27 2
  42   25   45 1
  43   25   46 1
  44   29   30 1
  45   29   31 1
  46   29   32 1
  47   33   34 1
  48   33   35 1
  49   33   36 1

#	End of record

