#	Name: ASD03930262
#	Creating user name:	WinNT
#	Creation time:	15. 06. 2019 20:47

#	Modifying user name:	WinNT
#	Modification time:	15. 06. 2019 20:47

#	Program:	/corina/corina34_cracker 3.40 0067  02.08.2006

@<TRIPOS>MOLECULE
ASD03930262
  44   47    0    0    0
SMALL
NO_CHARGES


@<TRIPOS>ATOM
   1 O1             1.8045     3.9268    -3.1572 O.3     
   2 C2             0.9213     3.1129    -3.9332 C.3     
   3 C3             1.6018     1.7745    -4.2564 C.3     
   4 C4             2.1928     1.2393    -2.9754 C.2     
   5 C5             2.3727     2.0086    -1.8677 C.2     
   6 C6             2.0031     3.4699    -1.8122 C.3     
   7 N7             2.6242     0.0004    -2.6913 N.pl3   
   8 N8             3.0845     0.0014    -1.3648 N.2     
   9 C9             2.9308     1.2095    -0.8760 C.2     
  10 C10            3.2963     1.6536     0.5169 C.3     
  11 F11            3.9354     0.6055     1.1879 F       
  12 F12            4.1567     2.7544     0.4447 F       
  13 F13            2.1362     2.0132     1.2112 F       
  14 C14            2.6167    -1.0975    -3.5627 C.ar    
  15 C15            2.9848    -0.9331    -4.8910 C.ar    
  16 C16            2.9772    -2.0180    -5.7495 C.ar    
  17 C17            2.6027    -3.2673    -5.2845 C.ar    
  18 C18            2.2347    -3.4333    -3.9600 C.ar    
  19 C19            2.2465    -2.3518    -3.0971 C.ar    
  20 F20            3.3350    -1.8584    -7.0424 F       
  21 F21            1.8687    -4.6529    -3.5087 F       
  22 C22            2.5951    -4.4478    -6.2212 C.3     
  23 N23            3.9061    -5.1011    -6.1942 N.am    
  24 C24            4.2414    -6.0943    -5.3527 C.2     
  25 C25            5.6719    -6.5218    -5.5963 C.3     
  26 C26            6.2788    -5.3631    -6.4210 C.3     
  27 C27            5.0200    -4.7595    -7.0866 C.3     
  28 O28            3.5044    -6.5771    -4.5193 O.2     
  29 H29            0.0077     2.9281    -3.3681 H       
  30 H30            0.6749     3.6281    -4.8616 H       
  31 H31            0.8665     1.0708    -4.6464 H       
  32 H32            2.3919     1.9297    -4.9911 H       
  33 H33            2.8089     4.0365    -1.3456 H       
  34 H34            1.0838     3.5961    -1.2405 H       
  35 H35            3.2767     0.0413    -5.2541 H       
  36 H36            1.9598    -2.4816    -2.0640 H       
  37 H37            1.8293    -5.1567    -5.9062 H       
  38 H38            2.3799    -4.1067    -7.2338 H       
  39 H39            6.2022    -6.6358    -4.6509 H       
  40 H40            5.7007    -7.4510    -6.1654 H       
  41 H41            6.7680    -4.6368    -5.7719 H       
  42 H42            6.9715    -5.7407    -7.1731 H       
  43 H43            4.8686    -5.1970    -8.0734 H       
  44 H44            5.1169    -3.6766    -7.1641 H       
@<TRIPOS>BOND
   1    1    2 1
   2    1    6 1
   3    2    3 1
   4    2   29 1
   5    2   30 1
   6    3    4 1
   7    3   31 1
   8    3   32 1
   9    4    5 2
  10    4    7 1
  11    5    6 1
  12    5    9 1
  13    6   33 1
  14    6   34 1
  15    7    8 1
  16    7   14 1
  17    8    9 2
  18    9   10 1
  19   10   11 1
  20   10   12 1
  21   10   13 1
  22   14   15 ar
  23   14   19 ar
  24   15   16 ar
  25   15   35 1
  26   16   17 ar
  27   16   20 1
  28   17   18 ar
  29   17   22 1
  30   18   19 ar
  31   18   21 1
  32   19   36 1
  33   22   23 1
  34   22   37 1
  35   22   38 1
  36   23   24 am
  37   23   27 1
  38   24   25 1
  39   24   28 2
  40   25   26 1
  41   25   39 1
  42   25   40 1
  43   26   27 1
  44   26   41 1
  45   26   42 1
  46   27   43 1
  47   27   44 1

#	End of record

