#	Name: ASD02408019
#	Creating user name:	WinNT
#	Creation time:	15. 06. 2019 20:21

#	Modifying user name:	WinNT
#	Modification time:	15. 06. 2019 20:21

#	Program:	/corina/corina34_cracker 3.40 0067  02.08.2006

@<TRIPOS>MOLECULE
ASD02408019
  36   37    0    0    0
SMALL
NO_CHARGES


@<TRIPOS>ATOM
   1 C1            -0.0167     1.3770     0.0096 C.ar    
   2 C2             0.0021    -0.0041     0.0020 C.ar    
   3 C3             1.2777     2.1488     0.0014 C.3     
   4 C4             1.6592     2.5048     1.4152 C.2     
   5 N5             2.7933     3.2011     1.6280 N.am    
   6 N6             0.8777     2.1333     2.3919 N.2     
   7 C7             1.1662     2.4222     3.6682 C.2     
   8 C8             2.3376     3.1420     3.9621 C.2     
   9 C9             3.1659     3.5372     2.8808 C.2     
  10 S10            0.0892     1.9061     4.9637 S.3     
  11 O11            4.1930     4.1630     3.0788 O.2     
  12 C12           -1.1853    -0.7129     0.0096 C.ar    
  13 C13           -2.3937    -0.0416     0.0248 C.ar    
  14 C14           -2.4178     1.3399     0.0320 C.ar    
  15 C15           -1.2282     2.0532     0.0190 C.ar    
  16 C16           -1.1862     1.0628     3.9950 C.3     
  17 O17           -1.2493     3.4120     0.0261 O.3     
  18 C18           -2.5323     4.0408     0.0470 C.3     
  19 C19           -2.3554     5.5606     0.0521 C.3     
  20 C20            2.6817     3.4707     5.3127 C.1     
  21 N21            2.9546     3.7314     6.3842 N.1     
  22 H22            0.9448    -0.5308    -0.0102 H       
  23 H23            2.0625     1.5373    -0.4437 H       
  24 H24            1.1530     3.0611    -0.5820 H       
  25 H25            3.3461     3.4623     0.8750 H       
  26 H26           -1.1686    -1.7927     0.0033 H       
  27 H27           -3.3197    -0.5974     0.0307 H       
  28 H28           -3.3621     1.8639     0.0435 H       
  29 H29           -0.7359     0.2403     3.4393 H       
  30 H30           -1.9524     0.6723     4.6647 H       
  31 H31           -1.6383     1.7679     3.2975 H       
  32 H32           -3.0970     3.7438    -0.8368 H       
  33 H33           -3.0724     3.7349     0.9430 H       
  34 H34           -3.3341     6.0402     0.0680 H       
  35 H35           -1.7907     5.8577     0.9358 H       
  36 H36           -1.8154     5.8665    -0.8440 H       
@<TRIPOS>BOND
   1    1    2 ar
   2    1    3 1
   3    1   15 ar
   4    2   12 ar
   5    2   22 1
   6    3    4 1
   7    3   23 1
   8    3   24 1
   9    4    5 1
  10    4    6 2
  11    5    9 am
  12    5   25 1
  13    6    7 1
  14    7    8 2
  15    7   10 1
  16    8    9 1
  17    8   20 1
  18    9   11 2
  19   10   16 1
  20   12   13 ar
  21   12   26 1
  22   13   14 ar
  23   13   27 1
  24   14   15 ar
  25   14   28 1
  26   15   17 1
  27   16   29 1
  28   16   30 1
  29   16   31 1
  30   17   18 1
  31   18   19 1
  32   18   32 1
  33   18   33 1
  34   19   34 1
  35   19   35 1
  36   19   36 1
  37   20   21 3

#	End of record

