#	Name: ASD01811791
#	Creating user name:	WinNT
#	Creation time:	15. 06. 2019 19:27

#	Modifying user name:	WinNT
#	Modification time:	15. 06. 2019 19:27

#	Program:	/corina/corina34_cracker 3.40 0067  02.08.2006

@<TRIPOS>MOLECULE
ASD01811791
  62   65    0    0    0
SMALL
NO_CHARGES


@<TRIPOS>ATOM
   1 C1            -0.0624     1.2596    -0.4690 C.2     
   2 N2             0.0097    -0.0339    -0.1018 N.am    
   3 C3             1.2039    -0.6623     0.0123 C.2     
   4 C4             2.3686    -0.0114    -0.2385 C.2     
   5 C5             2.3527     1.3295    -0.6219 C.2     
   6 C6             1.1276     1.9823    -0.7423 C.2     
   7 C7            -1.2235    -0.7732     0.1791 C.3     
   8 C8             1.2407    -2.1109     0.4259 C.3     
   9 O9            -1.1469     1.8065    -0.5711 O.2     
  10 C10            1.0691     3.3957    -1.1451 C.2     
  11 N11           -0.1223     3.9816    -1.3767 N.am    
  12 O12            2.0961     4.0358    -1.2693 O.2     
  13 C13           -0.1770     5.3551    -1.8835 C.3     
  14 C14            3.6812    -0.7390    -0.1020 C.3     
  15 C15            4.2649    -0.4706     1.2612 C.ar    
  16 C16            5.0027     0.6787     1.4808 C.ar    
  17 C17            4.0562    -1.3715     2.2898 C.ar    
  18 C18            4.5881    -1.1304     3.5404 C.ar    
  19 C19            5.3368     0.0228     3.7656 C.ar    
  20 C20            5.5396     0.9295     2.7273 C.ar    
  21 C21           -1.5669     7.4270    -2.0155 C.3     
  22 C22           -1.5099     5.9926    -1.4862 C.3     
  23 C23           -0.0526     5.3414    -3.4084 C.3     
  24 C24           -0.1097     6.7758    -3.9376 C.3     
  25 C25           -1.4426     7.4133    -3.5403 C.3     
  26 O26           -1.6260     6.0054    -0.0620 O.3     
  27 C27            5.9113     0.2874     5.1083 C.2     
  28 C28            6.6838     1.4071     5.4730 C.2     
  29 C29            7.0126     1.2765     6.7767 C.2     
  30 N30            6.4745     0.1233     7.2287 N.pl3   
  31 N31            5.7839    -0.4801     6.1699 N.2     
  32 C32            6.5895    -0.4030     8.5910 C.3     
  33 H33            3.2755     1.8536    -0.8223 H       
  34 H34           -2.0814    -0.1157     0.0383 H       
  35 H35           -1.3010    -1.6221    -0.5002 H       
  36 H36           -1.2056    -1.1319     1.2083 H       
  37 H37            0.2317    -2.4459     0.6663 H       
  38 H38            1.6381    -2.7123    -0.3917 H       
  39 H39            1.8790    -2.2224     1.3025 H       
  40 H40           -0.9436     3.4939    -1.2078 H       
  41 H41            0.6434     5.9325    -1.4572 H       
  42 H42            3.5173    -1.8098    -0.2226 H       
  43 H43            4.3724    -0.3886    -0.8686 H       
  44 H44            5.1593     1.3808     0.6752 H       
  45 H45            3.4756    -2.2651     2.1141 H       
  46 H46            4.4239    -1.8342     4.3430 H       
  47 H47            6.1155     1.8271     2.8977 H       
  48 H48           -2.5165     7.8812    -1.7324 H       
  49 H49           -0.7466     8.0045    -1.5892 H       
  50 H50           -2.3302     5.4152    -1.9124 H       
  51 H51            0.8969     4.8872    -3.6914 H       
  52 H52           -0.8730     4.7639    -3.8346 H       
  53 H53            0.7106     7.3532    -3.5114 H       
  54 H54           -0.0211     6.7660    -5.0240 H       
  55 H55           -2.2629     6.8359    -3.9666 H       
  56 H56           -1.4833     8.4352    -3.9174 H       
  57 H57           -2.4488     6.3966     0.2620 H       
  58 H58            6.9639     2.2248     4.8254 H       
  59 H59            7.6024     1.9718     7.3556 H       
  60 H60            5.7628    -0.0300     9.1956 H       
  61 H61            6.5570    -1.4922     8.5637 H       
  62 H62            7.5342    -0.0786     9.0274 H       
@<TRIPOS>BOND
   1    1    2 am
   2    1    6 1
   3    1    9 2
   4    2    3 1
   5    2    7 1
   6    3    4 2
   7    3    8 1
   8    4    5 1
   9    4   14 1
  10    5    6 2
  11    5   33 1
  12    6   10 1
  13    7   34 1
  14    7   35 1
  15    7   36 1
  16    8   37 1
  17    8   38 1
  18    8   39 1
  19   10   11 am
  20   10   12 2
  21   11   13 1
  22   11   40 1
  23   13   23 1
  24   13   22 1
  25   13   41 1
  26   14   15 1
  27   14   42 1
  28   14   43 1
  29   15   17 ar
  30   15   16 ar
  31   16   20 ar
  32   16   44 1
  33   17   18 ar
  34   17   45 1
  35   18   19 ar
  36   18   46 1
  37   19   20 ar
  38   19   27 1
  39   20   47 1
  40   21   22 1
  41   21   25 1
  42   21   48 1
  43   21   49 1
  44   22   26 1
  45   22   50 1
  46   23   24 1
  47   23   51 1
  48   23   52 1
  49   24   25 1
  50   24   53 1
  51   24   54 1
  52   25   55 1
  53   25   56 1
  54   26   57 1
  55   27   28 1
  56   27   31 2
  57   28   29 2
  58   28   58 1
  59   29   30 1
  60   29   59 1
  61   30   31 1
  62   30   32 1
  63   32   60 1
  64   32   61 1
  65   32   62 1

#	End of record

