#	Name: ASD06170209
#	Creating user name:	WinNT
#	Creation time:	15. 06. 2019 21:05

#	Modifying user name:	WinNT
#	Modification time:	15. 06. 2019 21:05

#	Program:	/corina/corina34_cracker 3.40 0067  02.08.2006

@<TRIPOS>MOLECULE
ASD06170209
  76   81    0    0    0
SMALL
NO_CHARGES


@<TRIPOS>ATOM
   1 C1             0.0684     1.3417     0.6849 C.2     
   2 C2            -0.3139     0.1268     0.0686 C.2     
   3 C3             0.4901    -0.3894    -0.9635 C.2     
   4 C4             1.6432     0.3223    -1.3429 C.2     
   5 C5             1.9592     1.4780    -0.7186 C.2     
   6 N6             1.1828     1.9783     0.2794 N.am    
   7 C7            -1.5241    -0.5803     0.4977 C.2     
   8 O8            -1.7810    -1.6790     0.0415 O.2     
   9 N9            -2.3523    -0.0138     1.3975 N.am    
  10 C10            1.5500     3.1801     0.8977 C.ar    
  11 C11            0.7813     4.3215     0.7118 C.ar    
  12 C12            1.1461     5.5051     1.3229 C.ar    
  13 C13            2.2756     5.5543     2.1192 C.ar    
  14 C14            3.0432     4.4194     2.3063 C.ar    
  15 C15            2.6805     3.2314     1.7026 C.ar    
  16 O16           -0.6134     1.8138     1.5785 O.2     
  17 N17            0.1560    -1.5676    -1.5896 N.pl3   
  18 C18           -1.0309    -1.6528    -2.4541 C.3     
  19 C19           -0.6126    -2.2623    -3.7964 C.3     
  20 N20            0.0752    -3.5383    -3.5581 N.3     
  21 C21            1.3153    -3.3409    -2.7957 C.3     
  22 C22            0.9794    -2.7740    -1.4172 C.3     
  23 C23            0.3403    -4.2376    -4.8224 C.3     
  24 C24           -3.4505    -0.7258     1.8796 C.ar    
  25 C25           -3.4772    -2.1111     1.7622 C.ar    
  26 C26           -4.5708    -2.8073     2.2440 C.ar    
  27 C27           -5.6089    -2.0881     2.8316 C.ar    
  28 C28           -5.5134    -0.7083     2.9141 C.ar    
  29 N29           -4.4530    -0.0761     2.4486 N.ar    
  30 O30           -6.7029    -2.7324     3.3181 O.3     
  31 N31           -6.3435    -4.6352     6.9597 N.ar    
  32 C32           -5.3473    -3.9249     6.4849 C.ar    
  33 C33           -5.4315    -3.2703     5.2626 C.ar    
  34 C34           -6.5920    -3.3610     4.5143 C.ar    
  35 C35           -7.6580    -4.1283     5.0353 C.ar    
  36 C36           -8.8653    -4.2671     4.3343 C.ar    
  37 C37           -9.8738    -5.0166     4.8677 C.ar    
  38 C38           -9.7150    -5.6490     6.1090 C.ar    
  39 C39           -8.5507    -5.5304     6.8118 C.ar    
  40 C40           -7.4946    -4.7658     6.2893 C.ar    
  41 O41          -10.7337    -6.3895     6.6193 O.3     
  42 C42          -10.5129    -7.0098     7.8876 C.3     
  43 O43          -11.0442    -5.1508     4.1886 O.3     
  44 C44          -11.1444    -4.4818     2.9299 C.3     
  45 H45            2.2756    -0.0554    -2.1327 H       
  46 H46            2.8469     2.0154    -1.0181 H       
  47 H47           -2.1845     0.8891     1.7099 H       
  48 H48           -0.1008     4.2838     0.0897 H       
  49 H49            0.5488     6.3933     1.1784 H       
  50 H50            2.5590     6.4812     2.5957 H       
  51 H51            3.9249     4.4611     2.9285 H       
  52 H52            3.2779     2.3443     1.8527 H       
  53 H53           -1.7825    -2.2861    -1.9828 H       
  54 H54           -1.4382    -0.6549    -2.6162 H       
  55 H55           -1.4975    -2.4350    -4.4090 H       
  56 H56            0.0599    -1.5775    -4.3130 H       
  57 H57            1.8286    -4.2958    -2.6825 H       
  58 H58            1.9610    -2.6411    -3.3262 H       
  59 H59            1.9005    -2.5170    -0.8941 H       
  60 H60            0.4248    -3.5171    -0.8443 H       
  61 H61            0.9700    -3.6144    -5.4573 H       
  62 H62            0.8500    -5.1789    -4.6170 H       
  63 H63           -0.6026    -4.4385    -5.3311 H       
  64 H64           -2.6545    -2.6367     1.3003 H       
  65 H65           -4.6189    -3.8834     2.1661 H       
  66 H66           -6.3144    -0.1441     3.3684 H       
  67 H67           -4.4369    -3.8469     7.0607 H       
  68 H68           -4.5949    -2.6927     4.8980 H       
  69 H69           -8.9963    -3.7831     3.3778 H       
  70 H70           -8.4422    -6.0227     7.7670 H       
  71 H71           -9.6637    -7.6894     7.8167 H       
  72 H72          -10.3042    -6.2443     8.6350 H       
  73 H73          -11.4023    -7.5687     8.1785 H       
  74 H74          -11.0121    -3.4099     3.0765 H       
  75 H75          -10.3714    -4.8546     2.2578 H       
  76 H76          -12.1259    -4.6707     2.4951 H       
@<TRIPOS>BOND
   1    1    2 1
   2    1    6 am
   3    1   16 2
   4    2    3 2
   5    2    7 1
   6    3    4 1
   7    3   17 1
   8    4    5 2
   9    4   45 1
  10    5    6 1
  11    5   46 1
  12    6   10 1
  13    7    8 2
  14    7    9 am
  15    9   24 1
  16    9   47 1
  17   10   11 ar
  18   10   15 ar
  19   11   12 ar
  20   11   48 1
  21   12   13 ar
  22   12   49 1
  23   13   14 ar
  24   13   50 1
  25   14   15 ar
  26   14   51 1
  27   15   52 1
  28   17   18 1
  29   17   22 1
  30   18   19 1
  31   18   53 1
  32   18   54 1
  33   19   20 1
  34   19   55 1
  35   19   56 1
  36   20   21 1
  37   20   23 1
  38   21   22 1
  39   21   57 1
  40   21   58 1
  41   22   59 1
  42   22   60 1
  43   23   61 1
  44   23   62 1
  45   23   63 1
  46   24   25 ar
  47   24   29 ar
  48   25   26 ar
  49   25   64 1
  50   26   27 ar
  51   26   65 1
  52   27   28 ar
  53   27   30 1
  54   28   29 ar
  55   28   66 1
  56   30   34 1
  57   31   32 ar
  58   31   40 ar
  59   32   33 ar
  60   32   67 1
  61   33   34 ar
  62   33   68 1
  63   34   35 ar
  64   35   36 ar
  65   35   40 ar
  66   36   37 ar
  67   36   69 1
  68   37   38 ar
  69   37   43 1
  70   38   39 ar
  71   38   41 1
  72   39   40 ar
  73   39   70 1
  74   41   42 1
  75   42   71 1
  76   42   72 1
  77   42   73 1
  78   43   44 1
  79   44   74 1
  80   44   75 1
  81   44   76 1

#	End of record

