#	Name: ASD01209398
#	Creating user name:	WinNT
#	Creation time:	15. 06. 2019 19:11

#	Modifying user name:	WinNT
#	Modification time:	15. 06. 2019 19:11

#	Program:	/corina/corina34_cracker 3.40 0067  02.08.2006

@<TRIPOS>MOLECULE
ASD01209398
  43   44    0    0    0
SMALL
NO_CHARGES


@<TRIPOS>ATOM
   1 C1             0.9661     1.5660    -1.4034 C.2     
   2 C2             0.7576     0.0809    -1.2543 C.3     
   3 O3             1.7498     2.1410    -0.6858 O.2     
   4 O4             0.2852     2.2490    -2.3370 O.3     
   5 S5             1.8183    -0.5481     0.0760 S.3     
   6 N6             2.6114    -3.0818    -0.4110 N.am    
   7 C7             1.4536    -2.3250     0.0830 C.3     
   8 C8             1.2210    -2.8037     1.4972 C.2     
   9 C9             2.1470    -3.7219     1.7543 C.2     
  10 C10            3.0094    -3.8996     0.5816 C.2     
  11 O11            3.9462    -4.6723     0.5153 O.2     
  12 C12            2.2891    -4.4686     3.0556 C.3     
  13 C13            0.1435    -2.3296     2.4381 C.3     
  14 C14            3.2171    -2.9718    -1.7403 C.3     
  15 C15            4.2940    -1.9178    -1.7160 C.ar    
  16 C16            5.5952    -2.2662    -1.4058 C.ar    
  17 C17            6.5830    -1.2994    -1.3834 C.ar    
  18 C18            6.2696     0.0157    -1.6716 C.ar    
  19 C19            4.9685     0.3640    -1.9827 C.ar    
  20 C20            3.9816    -0.6036    -2.0094 C.ar    
  21 C21            7.3463     1.0699    -1.6463 C.3     
  22 C22            7.9803     1.1848    -3.0340 C.3     
  23 H23           -0.2863    -0.1168    -1.0109 H       
  24 H24            1.0133    -0.4175    -2.1894 H       
  25 H25            0.4524     3.1996    -2.3948 H       
  26 H26            0.5787    -2.5313    -0.5336 H       
  27 H27            1.6946    -5.3814     3.0175 H       
  28 H28            3.3367    -4.7238     3.2155 H       
  29 H29            1.9389    -3.8408     3.8749 H       
  30 H30           -0.7571    -2.9251     2.2888 H       
  31 H31            0.4855    -2.4397     3.4672 H       
  32 H32           -0.0772    -1.2809     2.2389 H       
  33 H33            3.6533    -3.9304    -2.0214 H       
  34 H34            2.4528    -2.6936    -2.4660 H       
  35 H35            5.8401    -3.2937    -1.1806 H       
  36 H36            7.5995    -1.5715    -1.1403 H       
  37 H37            4.7236     1.3915    -2.2076 H       
  38 H38            2.9658    -0.3321    -2.2560 H       
  39 H39            6.9097     2.0284    -1.3657 H       
  40 H40            8.1099     0.7919    -0.9198 H       
  41 H41            8.7590     1.9473    -3.0156 H       
  42 H42            8.4168     0.2263    -3.3145 H       
  43 H43            7.2167     1.4628    -3.7604 H       
@<TRIPOS>BOND
   1    1    2 1
   2    1    3 2
   3    1    4 1
   4    2    5 1
   5    2   23 1
   6    2   24 1
   7    4   25 1
   8    5    7 1
   9    6    7 1
  10    6   10 am
  11    6   14 1
  12    7    8 1
  13    7   26 1
  14    8    9 2
  15    8   13 1
  16    9   10 1
  17    9   12 1
  18   10   11 2
  19   12   27 1
  20   12   28 1
  21   12   29 1
  22   13   30 1
  23   13   31 1
  24   13   32 1
  25   14   15 1
  26   14   33 1
  27   14   34 1
  28   15   16 ar
  29   15   20 ar
  30   16   17 ar
  31   16   35 1
  32   17   18 ar
  33   17   36 1
  34   18   19 ar
  35   18   21 1
  36   19   20 ar
  37   19   37 1
  38   20   38 1
  39   21   22 1
  40   21   39 1
  41   21   40 1
  42   22   41 1
  43   22   42 1
  44   22   43 1

#	End of record

