#	Name: ASD01813786
#	Creating user name:	WinNT
#	Creation time:	15. 06. 2019 19:31

#	Modifying user name:	WinNT
#	Modification time:	15. 06. 2019 19:31

#	Program:	/corina/corina34_cracker 3.40 0067  02.08.2006

@<TRIPOS>MOLECULE
ASD01813786
  57   61    0    0    0
SMALL
NO_CHARGES


@<TRIPOS>ATOM
   1 C1            -0.0169     1.3972     0.0097 C.2     
   2 C2             0.0021    -0.0041     0.0020 C.2     
   3 C3             1.1986    -0.6593    -0.0129 C.2     
   4 C4             2.3918     0.0821    -0.0204 C.2     
   5 N5             2.3438     1.4497    -0.0122 N.am    
   6 C6             1.1421     2.0936     0.0024 C.2     
   7 C7             3.6227    -0.5889    -0.0356 C.2     
   8 C8             4.7877     0.1218    -0.0430 C.2     
   9 C9             4.7345     1.5280    -0.0351 C.2     
  10 C10            3.4812     2.1736    -0.0189 C.2     
  11 O11            3.4258     3.3917    -0.0123 O.2     
  12 C12            5.9703     2.3140    -0.0422 C.2     
  13 O13            7.0487     1.7516    -0.0551 O.2     
  14 O14            5.9124     3.6618    -0.0346 O.3     
  15 C15            3.6593    -2.0954    -0.0434 C.3     
  16 N16            3.7785    -2.5752    -1.4268 N.3     
  17 C17            4.0547    -4.0181    -1.4618 C.3     
  18 C18            4.0925    -4.4924    -2.9165 C.3     
  19 N19            5.1249    -3.7436    -3.6465 N.3     
  20 C20            4.8487    -2.3006    -3.6115 C.3     
  21 C21            4.8109    -1.8263    -2.1568 C.3     
  22 C22            5.2441    -4.2233    -5.0298 C.3     
  23 C23            6.2377    -3.3411    -5.7960 C.3     
  24 C24            7.6065    -3.4365    -5.1101 C.3     
  25 C25            8.0580    -4.8997    -5.1087 C.3     
  26 N26            7.0334    -5.7261    -5.7617 N.3     
  27 C27            5.7608    -5.6649    -5.0303 C.3     
  28 C28            6.3686    -3.8799    -7.2262 C.3     
  29 C29            6.8550    -5.3306    -7.1656 C.3     
  30 H30           -0.9605     1.9226     0.0170 H       
  31 H31           -0.9233    -0.5609     0.0082 H       
  32 H32            1.2282    -1.7389    -0.0187 H       
  33 H33            1.1156     3.1733     0.0091 H       
  34 H34            5.7392    -0.3889    -0.0544 H       
  35 H35            6.7544     4.1373    -0.0398 H       
  36 H36            4.5154    -2.4410     0.5360 H       
  37 H37            2.7413    -2.4834     0.3979 H       
  38 H38            5.0172    -4.2157    -0.9898 H       
  39 H39            3.2700    -4.5517    -0.9256 H       
  40 H40            4.3259    -5.5567    -2.9460 H       
  41 H41            3.1215    -4.3197    -3.3806 H       
  42 H42            5.6334    -1.7670    -4.1477 H       
  43 H43            3.8863    -2.1031    -4.0835 H       
  44 H44            4.5775    -0.7620    -2.1273 H       
  45 H45            5.7819    -1.9990    -1.6927 H       
  46 H46            4.2693    -4.1825    -5.5158 H       
  47 H47            5.8931    -2.3070    -5.8027 H       
  48 H48            8.3310    -2.8313    -5.6550 H       
  49 H49            7.5265    -3.0780    -4.0839 H       
  50 H50            8.9988    -4.9905    -5.6515 H       
  51 H51            8.1965    -5.2366    -4.0813 H       
  52 H52            5.9153    -5.9962    -4.0034 H       
  53 H53            5.0309    -6.3127    -5.5157 H       
  54 H54            5.3984    -3.8404    -7.7215 H       
  55 H55            7.0880    -3.2763    -7.7795 H       
  56 H56            7.8056    -5.4177    -7.6917 H       
  57 H57            6.1177    -5.9813    -7.6359 H       
@<TRIPOS>BOND
   1    1    2 1
   2    1    6 2
   3    1   30 1
   4    2    3 2
   5    2   31 1
   6    3    4 1
   7    3   32 1
   8    4    5 1
   9    4    7 2
  10    5    6 1
  11    5   10 am
  12    6   33 1
  13    7    8 1
  14    7   15 1
  15    8    9 2
  16    8   34 1
  17    9   10 1
  18    9   12 1
  19   10   11 2
  20   12   13 2
  21   12   14 1
  22   14   35 1
  23   15   16 1
  24   15   36 1
  25   15   37 1
  26   16   17 1
  27   16   21 1
  28   17   18 1
  29   17   38 1
  30   17   39 1
  31   18   19 1
  32   18   40 1
  33   18   41 1
  34   19   20 1
  35   19   22 1
  36   20   21 1
  37   20   42 1
  38   20   43 1
  39   21   44 1
  40   21   45 1
  41   22   23 1
  42   22   27 1
  43   22   46 1
  44   23   24 1
  45   23   28 1
  46   23   47 1
  47   24   25 1
  48   24   48 1
  49   24   49 1
  50   25   26 1
  51   25   50 1
  52   25   51 1
  53   26   27 1
  54   26   29 1
  55   27   52 1
  56   27   53 1
  57   28   29 1
  58   28   54 1
  59   28   55 1
  60   29   56 1
  61   29   57 1

#	End of record

