#	Name: ASD03091035
#	Creating user name:	WinNT
#	Creation time:	15. 06. 2019 20:29

#	Modifying user name:	WinNT
#	Modification time:	15. 06. 2019 20:29

#	Program:	/corina/corina34_cracker 3.40 0067  02.08.2006

@<TRIPOS>MOLECULE
ASD03091035
  34   34    0    0    0
SMALL
NO_CHARGES


@<TRIPOS>ATOM
   1 C1             0.4278     1.4331    -0.2709 C.2     
   2 C2             0.2183    -0.0241    -0.1343 C.ar    
   3 C3             0.7087    -0.7007     0.9839 C.ar    
   4 C4             0.5107    -2.0603     1.1065 C.ar    
   5 C5            -0.1726    -2.7549     0.1244 C.ar    
   6 C6            -0.6625    -2.0905    -0.9884 C.ar    
   7 C7            -0.4753    -0.7274    -1.1197 C.ar    
   8 O8             1.5543     1.8893    -0.2552 O.2     
   9 N9            -0.6301     2.2551    -0.4185 N.am    
  10 N10            1.4406     0.0396     2.0361 N.pl3   
  11 O11            1.9806    -0.5670     2.9439 O.2     
  12 O12            1.5028     1.2553     1.9942 O.2     
  13 C13           -0.4226     3.6990    -0.5539 C.3     
  14 C14           -1.7553     4.3862    -0.7041 C.2     
  15 O15           -2.7779     3.7340    -0.6987 O.2     
  16 N16           -1.8110     5.7254    -0.8446 N.am    
  17 C17           -3.1066     6.3934    -0.9906 C.3     
  18 C18           -3.7014     6.6609     0.3934 C.3     
  19 C19           -2.9161     7.7199    -1.7289 C.3     
  20 F20           -1.3288    -2.7751    -1.9436 F       
  21 H21            0.8903    -2.5840     1.9714 H       
  22 H22           -0.3246    -3.8194     0.2254 H       
  23 H23           -0.8610    -0.2089    -1.9850 H       
  24 H24           -1.5289     1.8906    -0.4351 H       
  25 H25            0.0837     4.0781     0.3339 H       
  26 H26            0.1896     3.8971    -1.4337 H       
  27 H27           -0.9931     6.2470    -0.8490 H       
  28 H28           -3.7825     5.7549    -1.5594 H       
  29 H29           -4.6654     7.1579     0.2847 H       
  30 H30           -3.8371     5.7159     0.9194 H       
  31 H31           -3.0254     7.2995     0.9621 H       
  32 H32           -2.4924     7.5294    -2.7150 H       
  33 H33           -3.8801     8.2169    -1.8376 H       
  34 H34           -2.2402     8.3585    -1.1602 H       
@<TRIPOS>BOND
   1    1    2 1
   2    1    8 2
   3    1    9 am
   4    2    3 ar
   5    2    7 ar
   6    3    4 ar
   7    3   10 1
   8    4    5 ar
   9    4   21 1
  10    5    6 ar
  11    5   22 1
  12    6    7 ar
  13    6   20 1
  14    7   23 1
  15    9   13 1
  16    9   24 1
  17   10   11 2
  18   10   12 2
  19   13   14 1
  20   13   25 1
  21   13   26 1
  22   14   15 2
  23   14   16 am
  24   16   17 1
  25   16   27 1
  26   17   18 1
  27   17   19 1
  28   17   28 1
  29   18   29 1
  30   18   30 1
  31   18   31 1
  32   19   32 1
  33   19   33 1
  34   19   34 1

#	End of record

