#	Name: ASD02030376
#	Creating user name:	WinNT
#	Creation time:	15. 06. 2019 20:15

#	Modifying user name:	WinNT
#	Modification time:	15. 06. 2019 20:15

#	Program:	/corina/corina34_cracker 3.40 0067  02.08.2006

@<TRIPOS>MOLECULE
ASD02030376
  59   62    0    0    0
SMALL
NO_CHARGES


@<TRIPOS>ATOM
   1 C1            -1.0211     1.1349    -1.1895 C.2     
   2 O2            -1.1502    -0.0734    -1.1563 O.2     
   3 N3             2.2370     1.9184    -2.3556 N.pl3   
   4 N4             1.3449     1.0744    -1.9657 N.2     
   5 C5             0.2423     1.7303    -1.6740 C.2     
   6 N6             0.4672     3.0385    -1.8950 N.2     
   7 C7             1.7006     3.1554    -2.3165 C.2     
   8 C8             3.5453     1.6049    -2.7481 C.ar    
   9 C9             3.9774     0.2853    -2.7378 C.ar    
  10 C10            5.2673    -0.0205    -3.1251 C.ar    
  11 C11            6.1282     0.9858    -3.5230 C.ar    
  12 C12            5.7010     2.3010    -3.5340 C.ar    
  13 C13            4.4103     2.6125    -3.1536 C.ar    
  14 N14           -2.0318     1.9319    -0.7897 N.am    
  15 C15           -3.3418     1.3622    -0.4445 C.3     
  16 C16           -3.7116     1.8087     0.9755 C.3     
  17 N17           -3.5232     3.2629     1.0745 N.am    
  18 C18           -2.2132     3.8325     0.7293 C.3     
  19 C19           -1.8417     3.3854    -0.6852 C.3     
  20 C20           -4.3967     1.8651    -1.4320 C.3     
  21 C21           -3.2684    -0.1650    -0.4998 C.3     
  22 C22           -4.5339     4.0598     1.4743 C.2     
  23 C23           -4.3593     5.5247     1.4824 C.ar    
  24 C24           -5.3906     6.3553     1.0328 C.ar    
  25 C25           -5.2226     7.7266     1.0421 C.ar    
  26 C26           -4.0233     8.2797     1.5006 C.ar    
  27 C27           -3.0000     7.4523     1.9463 C.ar    
  28 C28           -3.1656     6.0843     1.9446 C.ar    
  29 O29           -5.5897     3.5714     1.8284 O.2     
  30 N30           -6.2527     8.5618     0.5923 N.pl3   
  31 C31           -7.5090     7.9816     0.1116 C.3     
  32 N32           -3.8538     9.6627     1.5100 N.pl3   
  33 H33            2.1987     4.0755    -2.5845 H       
  34 H34            3.3055    -0.5010    -2.4268 H       
  35 H35            5.6041    -1.0466    -3.1170 H       
  36 H36            7.1365     0.7442    -3.8255 H       
  37 H37            6.3760     3.0848    -3.8445 H       
  38 H38            4.0757     3.6392    -3.1670 H       
  39 H39           -4.7535     1.5602     1.1774 H       
  40 H40           -3.0667     1.3063     1.6965 H       
  41 H41           -2.2655     4.9205     0.7687 H       
  42 H42           -1.4616     3.4742     1.4328 H       
  43 H43           -0.7990     3.6332    -0.8836 H       
  44 H44           -2.4840     3.8911    -1.4063 H       
  45 H45           -4.1239     1.5596    -2.4420 H       
  46 H46           -5.3673     1.4414    -1.1739 H       
  47 H47           -4.4507     2.9527    -1.3834 H       
  48 H48           -2.4830    -0.5155     0.1700 H       
  49 H49           -4.2248    -0.5862    -0.1900 H       
  50 H50           -3.0450    -0.4814    -1.5186 H       
  51 H51           -6.3161     5.9258     0.6787 H       
  52 H52           -2.0745     7.8825     2.2996 H       
  53 H53           -2.3702     5.4441     2.2966 H       
  54 H54           -6.1343     9.5246     0.5990 H       
  55 H55           -7.3067     7.3313    -0.7395 H       
  56 H56           -7.9705     7.4014     0.9106 H       
  57 H57           -8.1847     8.7804    -0.1941 H       
  58 H58           -4.5676    10.2410     1.1987 H       
  59 H59           -3.0220    10.0472     1.8280 H       
@<TRIPOS>BOND
   1    1    2 2
   2    1    5 1
   3    1   14 am
   4    3    4 1
   5    3    7 1
   6    3    8 1
   7    4    5 2
   8    5    6 1
   9    6    7 2
  10    7   33 1
  11    8    9 ar
  12    8   13 ar
  13    9   10 ar
  14    9   34 1
  15   10   11 ar
  16   10   35 1
  17   11   12 ar
  18   11   36 1
  19   12   13 ar
  20   12   37 1
  21   13   38 1
  22   14   15 1
  23   14   19 1
  24   15   16 1
  25   15   20 1
  26   15   21 1
  27   16   17 1
  28   16   39 1
  29   16   40 1
  30   17   18 1
  31   17   22 am
  32   18   19 1
  33   18   41 1
  34   18   42 1
  35   19   43 1
  36   19   44 1
  37   20   45 1
  38   20   46 1
  39   20   47 1
  40   21   48 1
  41   21   49 1
  42   21   50 1
  43   22   23 1
  44   22   29 2
  45   23   24 ar
  46   23   28 ar
  47   24   25 ar
  48   24   51 1
  49   25   26 ar
  50   25   30 1
  51   26   27 ar
  52   26   32 1
  53   27   28 ar
  54   27   52 1
  55   28   53 1
  56   30   31 1
  57   30   54 1
  58   31   55 1
  59   31   56 1
  60   31   57 1
  61   32   58 1
  62   32   59 1

#	End of record

