#	Name: ASD09200041
#	Creating user name:	WinNT
#	Creation time:	15. 06. 2019 21:21

#	Modifying user name:	WinNT
#	Modification time:	15. 06. 2019 21:21

#	Program:	/corina/corina34_cracker 3.40 0067  02.08.2006

@<TRIPOS>MOLECULE
ASD09200041
  49   53    0    0    0
SMALL
NO_CHARGES


@<TRIPOS>ATOM
   1 N1            -0.0162     1.3436     0.0094 N.am    
   2 C2             0.0021    -0.0041     0.0020 C.2     
   3 S3             1.2786    -0.9047    -0.0145 S.o     
   4 C4             0.4619    -2.4791    -0.0155 C.2     
   5 C5            -0.8525    -2.1565    -0.0018 C.2     
   6 N6            -1.0692    -0.8044     0.0133 N.am    
   7 C7            -1.9377    -3.1566     0.0019 C.ar    
   8 C8            -1.6327    -4.5272    -0.0085 C.ar    
   9 C9            -2.6783    -5.4558    -0.0042 C.ar    
  10 C10           -4.0046    -5.0247     0.0106 C.ar    
  11 C11           -4.2931    -3.6736     0.0207 C.ar    
  12 C12           -3.2718    -2.7429     0.0217 C.ar    
  13 C13            1.2377     2.1093     0.0016 C.3     
  14 C14            1.1992     3.1065    -1.1607 C.3     
  15 C15           -0.0617     3.9665    -1.0481 C.3     
  16 C16           -1.3006     3.0725    -1.1375 C.3     
  17 C17           -1.2905     2.0749     0.0193 C.3     
  18 C18           -0.0593     4.7015     0.2938 C.3     
  19 N19           -0.0852     4.9462    -2.1424 N.3     
  20 O20           -0.4606    -5.1975    -0.0233 O.3     
  21 C21           -0.6543    -6.5346    -0.0293 C.ar    
  22 C22           -2.0344    -6.7828    -0.0179 C.ar    
  23 C23            0.2268    -7.6092    -0.0437 C.ar    
  24 C24           -0.2576    -8.9003    -0.0472 C.ar    
  25 C25           -1.6225    -9.1425    -0.0364 C.ar    
  26 C26           -2.5123    -8.0894    -0.0211 C.ar    
  27 H27            1.7141    -0.7890    -1.2817 H       
  28 H28            0.9079    -3.4626    -0.0252 H       
  29 H29           -1.9681    -0.4401     0.0241 H       
  30 H30           -4.8069    -5.7477     0.0138 H       
  31 H31           -5.3213    -3.3435     0.0318 H       
  32 H32           -3.5066    -1.6888     0.0296 H       
  33 H33            1.3422     2.6490     0.9428 H       
  34 H34            2.0801     1.4297    -0.1278 H       
  35 H35            2.0807     3.7463    -1.1204 H       
  36 H36            1.1861     2.5635    -2.1057 H       
  37 H37           -2.1983     3.6881    -1.0807 H       
  38 H38           -1.2902     2.5298    -2.0827 H       
  39 H39           -2.1167     1.3733    -0.0959 H       
  40 H40           -1.3914     2.6095     0.9638 H       
  41 H41            0.8224     5.3393     0.3571 H       
  42 H42           -0.9573     5.3141     0.3741 H       
  43 H43           -0.0412     3.9749     1.1060 H       
  44 H44           -0.9088     5.5268    -2.0904 H       
  45 H45            0.7533     5.5074    -2.1434 H       
  46 H46            1.2922    -7.4329    -0.0526 H       
  47 H47            0.4329    -9.7307    -0.0588 H       
  48 H48           -1.9896   -10.1582    -0.0400 H       
  49 H49           -3.5757    -8.2780    -0.0124 H       
@<TRIPOS>BOND
   1    1    2 am
   2    1   13 1
   3    1   17 1
   4    2    3 2
   5    2    6 am
   6    3    4 1
   7    3   27 1
   8    4    5 2
   9    4   28 1
  10    5    6 1
  11    5    7 1
  12    6   29 1
  13    7    8 ar
  14    7   12 ar
  15    8    9 ar
  16    8   20 1
  17    9   10 ar
  18    9   22 1
  19   10   11 ar
  20   10   30 1
  21   11   12 ar
  22   11   31 1
  23   12   32 1
  24   13   14 1
  25   13   33 1
  26   13   34 1
  27   14   15 1
  28   14   35 1
  29   14   36 1
  30   15   16 1
  31   15   18 1
  32   15   19 1
  33   16   17 1
  34   16   37 1
  35   16   38 1
  36   17   39 1
  37   17   40 1
  38   18   41 1
  39   18   42 1
  40   18   43 1
  41   19   44 1
  42   19   45 1
  43   20   21 1
  44   21   22 ar
  45   21   23 ar
  46   22   26 ar
  47   23   24 ar
  48   23   46 1
  49   24   25 ar
  50   24   47 1
  51   25   26 ar
  52   25   48 1
  53   26   49 1

#	End of record

