#	Name: ASD08151015
#	Creating user name:	WinNT
#	Creation time:	15. 06. 2019 21:16

#	Modifying user name:	WinNT
#	Modification time:	15. 06. 2019 21:16

#	Program:	/corina/corina34_cracker 3.40 0067  02.08.2006

@<TRIPOS>MOLECULE
ASD08151015
  38   40    0    0    0
SMALL
NO_CHARGES


@<TRIPOS>ATOM
   1 N1             0.3494     1.2125     0.4902 N.ar    
   2 C2             0.4441    -0.0834     0.6658 C.ar    
   3 C3             1.6698    -0.7015     0.9050 C.ar    
   4 C4             2.8108     0.0473     0.9609 C.ar    
   5 C5             2.7036     1.4385     0.7717 C.ar    
   6 C6             3.8390     2.2670     0.8169 C.ar    
   7 C7             3.7169     3.6074     0.6325 C.ar    
   8 C8             2.4623     4.1907     0.3938 C.ar    
   9 C9             1.3122     3.3981     0.3418 C.ar    
  10 C10            1.4261     2.0000     0.5328 C.ar    
  11 C11            2.3572     5.6493     0.1973 C.2     
  12 O12            1.4077     6.2573     0.6525 O.2     
  13 N13            3.3137     6.3078    -0.4868 N.am    
  14 C14            3.1541     7.7342    -0.7802 C.3     
  15 O15            4.4730     5.6208    -0.9219 O.3     
  16 C16            4.3949     5.1426    -2.2663 C.3     
  17 C17           -0.0084     4.0131     0.0909 C.ar    
  18 C18           -0.7927     4.4544     1.1614 C.ar    
  19 C19           -2.0263     5.0281     0.9182 C.ar    
  20 C20           -2.4840     5.1656    -0.3798 C.ar    
  21 C21           -1.7120     4.7306    -1.4427 C.ar    
  22 C22           -0.4762     4.1613    -1.2157 C.ar    
  23 F23           -0.3461     4.3198     2.4293 F       
  24 H24           -0.4506    -0.6869     0.6244 H       
  25 H25            1.7175    -1.7712     1.0463 H       
  26 H26            3.7692    -0.4151     1.1457 H       
  27 H27            4.8122     1.8359     0.9993 H       
  28 H28            4.5966     4.2327     0.6703 H       
  29 H29            3.5848     8.3223     0.0301 H       
  30 H30            3.6646     7.9725    -1.7133 H       
  31 H31            2.0940     7.9690    -0.8759 H       
  32 H32            5.3210     4.6284    -2.5233 H       
  33 H33            3.5577     4.4506    -2.3577 H       
  34 H34            4.2465     5.9839    -2.9432 H       
  35 H35           -2.6341     5.3694     1.7431 H       
  36 H36           -3.4488     5.6143    -0.5646 H       
  37 H37           -2.0764     4.8411    -2.4534 H       
  38 H38            0.1263     3.8267    -2.0472 H       
@<TRIPOS>BOND
   1    1    2 ar
   2    1   10 ar
   3    2    3 ar
   4    2   24 1
   5    3    4 ar
   6    3   25 1
   7    4    5 ar
   8    4   26 1
   9    5    6 ar
  10    5   10 ar
  11    6    7 ar
  12    6   27 1
  13    7    8 ar
  14    7   28 1
  15    8    9 ar
  16    8   11 1
  17    9   10 ar
  18    9   17 1
  19   11   12 2
  20   11   13 am
  21   13   14 1
  22   13   15 1
  23   14   29 1
  24   14   30 1
  25   14   31 1
  26   15   16 1
  27   16   32 1
  28   16   33 1
  29   16   34 1
  30   17   18 ar
  31   17   22 ar
  32   18   19 ar
  33   18   23 1
  34   19   20 ar
  35   19   35 1
  36   20   21 ar
  37   20   36 1
  38   21   22 ar
  39   21   37 1
  40   22   38 1

#	End of record

