#	Name: ASD03912041
#	Creating user name:	WinNT
#	Creation time:	15. 06. 2019 20:47

#	Modifying user name:	WinNT
#	Modification time:	15. 06. 2019 20:47

#	Program:	/corina/corina34_cracker 3.40 0067  02.08.2006

@<TRIPOS>MOLECULE
ASD03912041
  63   65    0    0    0
SMALL
NO_CHARGES


@<TRIPOS>ATOM
   1 C1             0.4634     1.3348     0.1930 C.ar    
   2 C2             0.6396     0.1435     0.8726 C.ar    
   3 C3            -0.4286    -0.4528     1.5173 C.ar    
   4 C4            -1.6756     0.1400     1.4837 C.ar    
   5 C5            -1.8559     1.3364     0.8020 C.ar    
   6 C6            -0.7797     1.9358     0.1608 C.ar    
   7 C7             1.6303     1.9812    -0.5082 C.3     
   8 C8            -0.2320    -1.7511     2.2568 C.3     
   9 N9            -3.1180     1.9395     0.7661 N.am    
  10 C10           -3.2228     3.2832     0.7578 C.2     
  11 C11           -4.5733     3.9327     0.5988 C.3     
  12 O12           -2.2301     3.9696     0.8782 O.2     
  13 C13           -4.4159     5.4312     0.6221 C.ar    
  14 C14           -4.2019     6.1212    -0.5568 C.ar    
  15 C15           -4.0573     7.4949    -0.5381 C.ar    
  16 C16           -4.1269     8.1822     0.6650 C.ar    
  17 C17           -4.3416     7.4876     1.8466 C.ar    
  18 C18           -4.4912     6.1145     1.8218 C.ar    
  19 O19           -3.9845     9.5335     0.6861 O.3     
  20 C20           -4.1830    10.1873     1.9412 C.3     
  21 C21           -5.5533     9.8653     2.4795 C.2     
  22 C22           -3.1046     9.7415     2.9442 C.3     
  23 C23           -2.3290    11.0115     3.3508 C.3     
  24 C24           -3.3227    12.1675     3.0767 C.3     
  25 C25           -4.0264    11.7127     1.7731 C.3     
  26 N26           -6.5897     9.7065     1.6327 N.am    
  27 O27           -5.7234     9.7490     3.6747 O.2     
  28 C28           -7.8962     9.2857     2.1448 C.3     
  29 C29           -8.6602    10.4928     2.6246 C.2     
  30 O30           -8.1643    11.5919     2.5467 O.2     
  31 O31           -9.8917    10.3471     3.1384 O.3     
  32 C32           -8.6828     8.5945     1.0293 C.3     
  33 O33           -8.9683     9.5368    -0.0065 O.3     
  34 H34            1.6136    -0.3224     0.8997 H       
  35 H35           -2.5096    -0.3266     1.9868 H       
  36 H36           -0.9167     2.8664    -0.3699 H       
  37 H37            1.6862     1.6152    -1.5334 H       
  38 H38            1.4960     3.0628    -0.5153 H       
  39 H39            2.5526     1.7330     0.0170 H       
  40 H40            0.0408    -1.5423     3.2912 H       
  41 H41           -1.1578    -2.3259     2.2341 H       
  42 H42            0.5633    -2.3240     1.7798 H       
  43 H43           -3.9175     1.3906     0.7473 H       
  44 H44           -5.0133     3.6283    -0.3509 H       
  45 H45           -5.2240     3.6229     1.4165 H       
  46 H46           -4.1475     5.5857    -1.4931 H       
  47 H47           -3.8899     8.0333    -1.4592 H       
  48 H48           -4.3962     8.0204     2.7844 H       
  49 H49           -4.6584     5.5733     2.7413 H       
  50 H50           -3.5723     9.2930     3.8206 H       
  51 H51           -2.4297     9.0265     2.4736 H       
  52 H52           -2.0670    10.9763     4.4083 H       
  53 H53           -1.4342    11.1244     2.7387 H       
  54 H54           -4.0415    12.2602     3.8908 H       
  55 H55           -2.7903    13.1059     2.9214 H       
  56 H56           -3.4060    11.9387     0.9059 H       
  57 H57           -5.0021    12.1896     1.6800 H       
  58 H58           -6.4706     9.8708     0.6842 H       
  59 H59           -7.7553     8.5919     2.9736 H       
  60 H60          -10.3425    11.1504     3.4328 H       
  61 H61           -8.0912     7.7748     0.6217 H       
  62 H62           -9.6170     8.2032     1.4321 H       
  63 H63           -9.4662     9.1669    -0.7483 H       
@<TRIPOS>BOND
   1    1    2 ar
   2    1    7 1
   3    1    6 ar
   4    2    3 ar
   5    2   34 1
   6    3    4 ar
   7    3    8 1
   8    4    5 ar
   9    4   35 1
  10    5    6 ar
  11    5    9 1
  12    6   36 1
  13    7   37 1
  14    7   38 1
  15    7   39 1
  16    8   40 1
  17    8   41 1
  18    8   42 1
  19    9   10 am
  20    9   43 1
  21   10   11 1
  22   10   12 2
  23   11   13 1
  24   11   44 1
  25   11   45 1
  26   13   14 ar
  27   13   18 ar
  28   14   15 ar
  29   14   46 1
  30   15   16 ar
  31   15   47 1
  32   16   17 ar
  33   16   19 1
  34   17   18 ar
  35   17   48 1
  36   18   49 1
  37   19   20 1
  38   20   21 1
  39   20   22 1
  40   20   25 1
  41   21   26 am
  42   21   27 2
  43   22   23 1
  44   22   50 1
  45   22   51 1
  46   23   24 1
  47   23   52 1
  48   23   53 1
  49   24   25 1
  50   24   54 1
  51   24   55 1
  52   25   56 1
  53   25   57 1
  54   26   28 1
  55   26   58 1
  56   28   29 1
  57   28   32 1
  58   28   59 1
  59   29   30 2
  60   29   31 1
  61   31   60 1
  62   32   33 1
  63   32   61 1
  64   32   62 1
  65   33   63 1

#	End of record

