#	Name: ASD03740195
#	Creating user name:	WinNT
#	Creation time:	15. 06. 2019 20:46

#	Modifying user name:	WinNT
#	Modification time:	15. 06. 2019 20:46

#	Program:	/corina/corina34_cracker 3.40 0067  02.08.2006

@<TRIPOS>MOLECULE
ASD03740195
  33   34    0    0    0
SMALL
NO_CHARGES


@<TRIPOS>ATOM
   1 Cl1            3.5147     3.2776     2.6929 Cl      
   2 C2            -0.0167     1.3785     0.0096 C.ar    
   3 C3             0.0021    -0.0041     0.0020 C.ar    
   4 C4             1.2074    -0.6815    -0.0126 C.ar    
   5 C5             2.3963     0.0217    -0.0197 C.ar    
   6 C6             2.3803     1.4092    -0.0126 C.ar    
   7 C7             1.1694     2.0866     0.0021 C.ar    
   8 O8             3.5484     2.1034    -0.0191 O.3     
   9 C9             3.4839     3.4614    -0.0117 C.ar    
  10 C10            3.4612     4.1497     1.1928 C.ar    
  11 C11            3.3956     5.5312     1.1974 C.ar    
  12 C12            3.3521     6.2268     0.0037 C.ar    
  13 C13            3.3740     5.5443    -1.1989 C.ar    
  14 C14            3.4463     4.1630    -1.2102 C.ar    
  15 N15            2.7894     7.6524    -2.2567 N.3     
  16 C16            4.6737     7.0797    -4.4547 C.3     
  17 C17            4.7378     6.4164    -3.0774 C.3     
  18 C18            3.3259     6.3064    -2.4981 C.3     
  19 F19            3.4738     3.4968    -2.3852 F       
  20 H20           -0.9595     1.9053     0.0169 H       
  21 H21           -0.9263    -0.5558     0.0079 H       
  22 H22            1.2193    -1.7614    -0.0182 H       
  23 H23            3.3375    -0.5079    -0.0305 H       
  24 H24            1.1542     3.1665     0.0077 H       
  25 H25            3.3779     6.0672     2.1348 H       
  26 H26            3.3004     7.3056     0.0102 H       
  27 H27            3.3678     8.1607    -1.6047 H       
  28 H28            4.0541     6.4776    -5.1194 H       
  29 H29            4.2417     8.0758    -4.3585 H       
  30 H30            5.6795     7.1581    -4.8673 H       
  31 H31            5.1697     5.4203    -3.1735 H       
  32 H32            5.3573     7.0185    -2.4127 H       
  33 H33            2.6835     5.7804    -3.2043 H       
@<TRIPOS>BOND
   1    1   10 1
   2    2    3 ar
   3    2    7 ar
   4    2   20 1
   5    3    4 ar
   6    3   21 1
   7    4    5 ar
   8    4   22 1
   9    5    6 ar
  10    5   23 1
  11    6    7 ar
  12    6    8 1
  13    7   24 1
  14    8    9 1
  15    9   10 ar
  16    9   14 ar
  17   10   11 ar
  18   11   12 ar
  19   11   25 1
  20   12   13 ar
  21   12   26 1
  22   13   14 ar
  23   13   18 1
  24   14   19 1
  25   15   18 1
  26   15   27 1
  27   16   17 1
  28   16   28 1
  29   16   29 1
  30   16   30 1
  31   17   18 1
  32   17   31 1
  33   17   32 1
  34   18   33 1

#	End of record

