#	Name: ASD03240536
#	Creating user name:	WinNT
#	Creation time:	15. 06. 2019 20:35

#	Modifying user name:	WinNT
#	Modification time:	15. 06. 2019 20:35

#	Program:	/corina/corina34_cracker 3.40 0067  02.08.2006

@<TRIPOS>MOLECULE
ASD03240536
  62   68    0    0    0
SMALL
NO_CHARGES


@<TRIPOS>ATOM
   1 C1             0.3612     2.7909    -2.3535 C.ar    
   2 C2             0.3897     1.7088    -3.2160 C.ar    
   3 N3             1.4391     0.9139    -3.2758 N.ar    
   4 C4             2.5097     1.1113    -2.5183 C.ar    
   5 C5             2.5509     2.1862    -1.6217 C.ar    
   6 C6             1.4553     3.0406    -1.5403 C.ar    
   7 N7             3.4761     0.1459    -2.7628 N.pl3   
   8 C8             4.7117     0.0129    -2.1808 C.ar    
   9 C9             5.3312     0.8507    -1.1538 C.ar    
  10 C10            4.8003     1.9978    -0.5191 C.2     
  11 N11            3.5589     2.5775    -0.7421 N.pl3   
  12 C12            5.4190    -1.0811    -2.6738 C.ar    
  13 C13            6.6791    -1.3498    -2.1882 C.ar    
  14 C14            7.2676    -0.5511    -1.2107 C.ar    
  15 C15            6.6204     0.5301    -0.6931 C.ar    
  16 N16            5.4643     2.6839     0.4094 N.2     
  17 C17            4.7330     3.7033     0.8284 C.2     
  18 C18            3.4557     3.6514     0.0721 C.2     
  19 C19            2.3585     4.5416     0.1814 C.ar    
  20 C20            1.3390     4.2985     1.1216 C.ar    
  21 C21            2.2827     5.6787    -0.6455 C.ar    
  22 C22            1.2166     6.5329    -0.5312 C.ar    
  23 C23            0.2150     6.2805     0.3947 C.ar    
  24 C24            0.2822     5.1663     1.2186 C.ar    
  25 C25            5.1109     4.6948     1.8452 C.ar    
  26 C26           -0.9519     7.2271     0.5109 C.3     
  27 N27           -1.1344     8.0573    -0.6872 N.3     
  28 C28           -2.2461     6.5529     0.9962 C.3     
  29 C29           -2.4913     7.8124     1.8437 C.3     
  30 C30           -0.9670     8.0280     1.8236 C.3     
  31 C31            5.7716     4.2896     3.0152 C.ar    
  32 C32            6.1222     5.2258     3.9621 C.ar    
  33 C33            5.8245     6.5649     3.7625 C.ar    
  34 C34            5.1722     6.9745     2.6100 C.ar    
  35 C35            4.8186     6.0534     1.6495 C.ar    
  36 N36            6.2051     7.5634     4.7865 N.pl3   
  37 O37            6.8245     7.1787     5.8832 O.2     
  38 O38            5.9243     8.8367     4.6010 O.2     
  39 H39           -0.5035     3.4370    -2.3177 H       
  40 H40           -0.4622     1.5125    -3.8502 H       
  41 H41            1.4576     3.8786    -0.8590 H       
  42 H42            3.2491    -0.5202    -3.4303 H       
  43 H43            4.9818    -1.7145    -3.4315 H       
  44 H44            7.2232    -2.1993    -2.5738 H       
  45 H45            8.2578    -0.7946    -0.8549 H       
  46 H46            7.0944     1.1370     0.0642 H       
  47 H47            1.3892     3.4316     1.7637 H       
  48 H48            3.0616     5.8773    -1.3668 H       
  49 H49            1.1566     7.4060    -1.1642 H       
  50 H50           -0.5033     4.9795     1.9359 H       
  51 H51           -0.2682     8.4994    -0.9561 H       
  52 H52           -1.5151     7.5152    -1.4482 H       
  53 H53           -2.9843     6.4067     0.2077 H       
  54 H54           -2.0746     5.6544     1.5888 H       
  55 H55           -3.0478     8.5897     1.3200 H       
  56 H56           -2.8901     7.6003     2.8357 H       
  57 H57           -0.4451     7.5329     2.6424 H       
  58 H58           -0.6752     9.0714     1.7036 H       
  59 H59            6.0040     3.2467     3.1725 H       
  60 H60            6.6303     4.9159     4.8633 H       
  61 H61            4.9444     8.0200     2.4630 H       
  62 H62            4.3104     6.3744     0.7522 H       
@<TRIPOS>BOND
   1    1    2 ar
   2    1    6 ar
   3    1   39 1
   4    2    3 ar
   5    2   40 1
   6    3    4 ar
   7    4    5 ar
   8    4    7 1
   9    5    6 ar
  10    5   11 1
  11    6   41 1
  12    7    8 1
  13    7   42 1
  14    8    9 ar
  15    8   12 ar
  16    9   10 1
  17    9   15 ar
  18   10   11 1
  19   10   16 2
  20   11   18 1
  21   12   13 ar
  22   12   43 1
  23   13   14 ar
  24   13   44 1
  25   14   15 ar
  26   14   45 1
  27   15   46 1
  28   16   17 1
  29   17   18 2
  30   17   25 1
  31   18   19 1
  32   19   20 ar
  33   19   21 ar
  34   20   24 ar
  35   20   47 1
  36   21   22 ar
  37   21   48 1
  38   22   23 ar
  39   22   49 1
  40   23   24 ar
  41   23   26 1
  42   24   50 1
  43   25   31 ar
  44   25   35 ar
  45   26   27 1
  46   26   28 1
  47   26   30 1
  48   27   51 1
  49   27   52 1
  50   28   29 1
  51   28   53 1
  52   28   54 1
  53   29   30 1
  54   29   55 1
  55   29   56 1
  56   30   57 1
  57   30   58 1
  58   31   32 ar
  59   31   59 1
  60   32   33 ar
  61   32   60 1
  62   33   34 ar
  63   33   36 1
  64   34   35 ar
  65   34   61 1
  66   35   62 1
  67   36   37 2
  68   36   38 2

#	End of record

