#	Name: ASD05313332
#	Creating user name:	WinNT
#	Creation time:	15. 06. 2019 20:59

#	Modifying user name:	WinNT
#	Modification time:	15. 06. 2019 20:59

#	Program:	/corina/corina34_cracker 3.40 0067  02.08.2006

@<TRIPOS>MOLECULE
ASD05313332
  42   44    0    0    0
SMALL
NO_CHARGES


@<TRIPOS>ATOM
   1 C1             0.2190     0.5756     0.7643 C.2     
   2 C2             0.2878    -0.8279     0.2043 C.3     
   3 N3             1.2566     1.4461     0.7352 N.pl3   
   4 N4             1.5402    -0.9244    -0.5678 N.am    
   5 C5             2.7587    -0.3419     0.0147 C.3     
   6 C6             2.5734     1.1731     0.1561 C.3     
   7 N7            -0.7972     1.1466     1.3427 N.2     
   8 C8            -0.4618     2.3911     1.7079 C.2     
   9 C9             0.8317     2.6031     1.3369 C.2     
  10 C10            1.6223     3.8358     1.5445 C.ar    
  11 C11            2.7978     4.0442     0.8221 C.ar    
  12 C12            3.5304     5.1965     1.0200 C.ar    
  13 C13            3.1021     6.1439     1.9327 C.ar    
  14 C14            1.9375     5.9433     2.6521 C.ar    
  15 C15            1.1927     4.7980     2.4593 C.ar    
  16 C16            1.5678    -1.5291    -1.7719 C.2     
  17 O17            2.5849    -1.5119    -2.4377 O.2     
  18 C18            0.3627    -2.2126    -2.2826 C.ar    
  19 C19           -0.0350    -2.0349    -3.6111 C.ar    
  20 C20           -1.1619    -2.6769    -4.0822 C.ar    
  21 C21           -1.8982    -3.4962    -3.2409 C.ar    
  22 C22           -1.5080    -3.6752    -1.9223 C.ar    
  23 C23           -0.3810    -3.0437    -1.4420 C.ar    
  24 F24           -3.0008    -4.1224    -3.7072 F       
  25 Cl25           0.8864    -1.0086    -4.6652 Cl      
  26 H26            0.2961    -1.5528     1.0182 H       
  27 H27           -0.5661    -1.0099    -0.4482 H       
  28 H28            2.9386    -0.7801     0.9964 H       
  29 H29            3.6078    -0.5458    -0.6376 H       
  30 H30            2.6436     1.6416    -0.8256 H       
  31 H31            3.3484     1.5754     0.8085 H       
  32 H32           -1.1030     3.1004     2.2101 H       
  33 H33            3.1336     3.3051     0.1099 H       
  34 H34            4.4405     5.3590     0.4616 H       
  35 H35            3.6795     7.0439     2.0845 H       
  36 H36            1.6086     6.6865     3.3633 H       
  37 H37            0.2816     4.6444     3.0184 H       
  38 H38           -1.4709    -2.5406    -5.1081 H       
  39 H39           -2.0862    -4.3142    -1.2713 H       
  40 H40           -0.0758    -3.1881    -0.4161 H       
  41 Cl41           9.4405    12.0439     8.3633 Cl      
  42 H42            9.4405    13.4139     8.3633 H       
@<TRIPOS>BOND
   1    1    2 1
   2    1    3 1
   3    1    7 2
   4    2    4 1
   5    2   26 1
   6    2   27 1
   7    3    6 1
   8    3    9 1
   9    4    5 1
  10    4   16 am
  11    5    6 1
  12    5   28 1
  13    5   29 1
  14    6   30 1
  15    6   31 1
  16    7    8 1
  17    8    9 2
  18    8   32 1
  19    9   10 1
  20   10   11 ar
  21   10   15 ar
  22   11   12 ar
  23   11   33 1
  24   12   13 ar
  25   12   34 1
  26   13   14 ar
  27   13   35 1
  28   14   15 ar
  29   14   36 1
  30   15   37 1
  31   16   17 2
  32   16   18 1
  33   18   19 ar
  34   18   23 ar
  35   19   20 ar
  36   19   25 1
  37   20   21 ar
  38   20   38 1
  39   21   22 ar
  40   21   24 1
  41   22   23 ar
  42   22   39 1
  43   23   40 1
  44   41   42 1

#	End of record

