#	Name: ASD01190070
#	Creating user name:	WinNT
#	Creation time:	15. 06. 2019 19:07

#	Modifying user name:	WinNT
#	Modification time:	15. 06. 2019 19:07

#	Program:	/corina/corina34_cracker 3.40 0067  02.08.2006

@<TRIPOS>MOLECULE
ASD01190070
  54   58    0    0    0
SMALL
NO_CHARGES


@<TRIPOS>ATOM
   1 C1            -0.7925    -0.5785     0.2028 C.2     
   2 C2             0.1997     0.5285    -0.0449 C.3     
   3 O3            -0.4046    -1.7172     0.3569 O.2     
   4 N4            -2.1104    -0.3021     0.2585 N.am    
   5 N5             1.5563    -0.0246    -0.0534 N.pl3   
   6 C6             2.2812    -0.3110    -1.1770 C.2     
   7 C7             3.4822    -0.8029    -0.8331 C.2     
   8 C8             3.5296    -0.8338     0.6306 C.ar    
   9 C9             4.4926    -1.2328     1.5626 C.ar    
  10 C10            4.2282    -1.1349     2.8992 C.ar    
  11 C11            3.0094    -0.6419     3.3439 C.ar    
  12 C12            2.0407    -0.2409     2.4409 C.ar    
  13 C13            2.2950    -0.3284     1.0699 C.ar    
  14 N14            0.8155     0.2541     2.8982 N.pl3   
  15 C15            0.6019     0.4707     4.3313 C.3     
  16 C16            1.1385     1.8486     4.7244 C.3     
  17 N17           -4.8394     0.0748     5.6896 N.pl3   
  18 N18           -4.7109    -0.6276     6.8924 N.2     
  19 C19           -3.4537    -0.8609     7.1425 C.2     
  20 C20           -2.6679    -0.2889     6.0537 C.ar    
  21 C21           -1.2987    -0.2237     5.7723 C.ar    
  22 C22           -0.8724     0.4002     4.6358 C.ar    
  23 C23           -1.7847     0.9714     3.7569 C.ar    
  24 C24           -3.1262     0.9209     4.0103 C.ar    
  25 C25           -3.5908     0.2907     5.1615 C.ar    
  26 C26           -6.0482     0.4864     5.1135 C.ar    
  27 C27           -7.1819    -0.3062     5.2352 C.ar    
  28 C28           -8.3725     0.1014     4.6665 C.ar    
  29 C29           -8.4364     1.2997     3.9753 C.ar    
  30 C30           -7.3070     2.0917     3.8528 C.ar    
  31 C31           -6.1158     1.6905     4.4249 C.ar    
  32 F32           -9.6020     1.6965     3.4193 F       
  33 F33            0.4645     2.8361     3.9979 F       
  34 F34            0.9345     2.0555     6.0929 F       
  35 F35            2.5071     1.9141     4.4417 F       
  36 H36           -0.0087     0.9945    -1.0079 H       
  37 H37            0.1165     1.2745     0.7454 H       
  38 H38           -2.4203     0.6093     0.1391 H       
  39 H39           -2.7490    -1.0146     0.4178 H       
  40 H40            1.9384    -0.1637    -2.1906 H       
  41 H41            4.2649    -1.1168    -1.5078 H       
  42 H42            5.4438    -1.6180     1.2262 H       
  43 H43            4.9742    -1.4443     3.6163 H       
  44 H44            2.8153    -0.5711     4.4039 H       
  45 H45            0.1070     0.4541     2.2666 H       
  46 H46            1.1270    -0.2987     4.8973 H       
  47 H47           -3.0626    -1.3840     8.0027 H       
  48 H48           -0.5834    -0.6645     6.4507 H       
  49 H49           -1.4288     1.4616     2.8628 H       
  50 H50           -3.8248     1.3691     3.3193 H       
  51 H51           -7.1324    -1.2410     5.7739 H       
  52 H52           -9.2544    -0.5150     4.7606 H       
  53 H53           -7.3588     3.0257     3.3131 H       
  54 H54           -5.2364     2.3107     4.3333 H       
@<TRIPOS>BOND
   1    1    2 1
   2    1    3 2
   3    1    4 am
   4    2    5 1
   5    2   36 1
   6    2   37 1
   7    4   38 1
   8    4   39 1
   9    5    6 1
  10    5   13 1
  11    6    7 2
  12    6   40 1
  13    7    8 1
  14    7   41 1
  15    8    9 ar
  16    8   13 ar
  17    9   10 ar
  18    9   42 1
  19   10   11 ar
  20   10   43 1
  21   11   12 ar
  22   11   44 1
  23   12   13 ar
  24   12   14 1
  25   14   15 1
  26   14   45 1
  27   15   16 1
  28   15   22 1
  29   15   46 1
  30   16   33 1
  31   16   34 1
  32   16   35 1
  33   17   18 1
  34   17   25 1
  35   17   26 1
  36   18   19 2
  37   19   20 1
  38   19   47 1
  39   20   21 ar
  40   20   25 ar
  41   21   22 ar
  42   21   48 1
  43   22   23 ar
  44   23   24 ar
  45   23   49 1
  46   24   25 ar
  47   24   50 1
  48   26   27 ar
  49   26   31 ar
  50   27   28 ar
  51   27   51 1
  52   28   29 ar
  53   28   52 1
  54   29   30 ar
  55   29   32 1
  56   30   31 ar
  57   30   53 1
  58   31   54 1

#	End of record

