#	Name: ASD03331025
#	Creating user name:	WinNT
#	Creation time:	15. 06. 2019 20:38

#	Modifying user name:	WinNT
#	Modification time:	15. 06. 2019 20:38

#	Program:	/corina/corina34_cracker 3.40 0067  02.08.2006

@<TRIPOS>MOLECULE
ASD03331025
  63   65    0    0    0
SMALL
NO_CHARGES


@<TRIPOS>ATOM
   1 N1             0.1997     1.9172     0.4512 N.pl3   
   2 C2             0.2956     0.5607     0.4396 C.2     
   3 C3             1.5626    -0.2278     0.2341 C.3     
   4 N4             2.6202     0.3265     1.0936 N.3     
   5 C5             3.3503     1.3973     0.4124 C.3     
   6 C6             2.4269     2.1848    -0.5127 C.3     
   7 C7             1.3188     2.8524     0.3063 C.3     
   8 C8            -1.1155     2.2323     0.6329 C.2     
   9 N9            -1.8011     1.1188     0.7470 N.2     
  10 C10           -0.9586     0.0682     0.6349 C.2     
  11 C11           -1.3308    -1.3555     0.7098 C.2     
  12 O12           -0.4774    -2.2142     0.5928 O.2     
  13 N13           -2.6170    -1.7063     0.9081 N.am    
  14 C14           -1.6749     3.5998     0.6920 C.ar    
  15 C15           -2.8674     3.8991     0.0274 C.ar    
  16 C16           -3.3858     5.1785     0.0864 C.ar    
  17 C17           -2.7256     6.1634     0.8020 C.ar    
  18 C18           -1.5408     5.8716     1.4633 C.ar    
  19 C19           -1.0171     4.5947     1.4162 C.ar    
  20 F20           -0.9014     6.8373     2.1589 F       
  21 F21           -3.2365     7.4129     0.8560 F       
  22 F22           -3.5118     2.9393    -0.6717 F       
  23 C23            3.5359    -0.7284     1.5483 C.3     
  24 C24            4.6794    -0.1012     2.3482 C.3     
  25 C25           -4.2557    -3.2679     1.7828 C.2     
  26 C26           -2.9870    -3.1218     0.9826 C.3     
  27 C27           -3.2096    -3.6658    -0.4300 C.3     
  28 C28           -4.3368    -2.8830    -1.1063 C.3     
  29 O29           -5.0523    -2.3546     1.8287 O.2     
  30 N30           -4.5050    -4.4136     2.4474 N.am    
  31 C31           -5.7863    -4.5987     3.1330 C.3     
  32 C32           -1.9230    -3.5130    -1.2439 C.3     
  33 C33           -3.5913    -5.1454    -0.3525 C.3     
  34 H34            1.3890    -1.2713     0.4970 H       
  35 H35            1.8686    -0.1601    -0.8098 H       
  36 H36            3.7724     2.0726     1.1567 H       
  37 H37            4.1590     0.9620    -0.1746 H       
  38 H38            3.0027     2.9493    -1.0344 H       
  39 H39            1.9811     1.5079    -1.2416 H       
  40 H40            0.9781     3.7518    -0.2065 H       
  41 H41            1.7028     3.1167     1.2916 H       
  42 H42           -3.2976    -1.0215     1.0015 H       
  43 H43           -4.3072     5.4109    -0.4268 H       
  44 H44           -0.0974     4.3677     1.9349 H       
  45 H45            2.9941    -1.4324     2.1800 H       
  46 H46            3.9424    -1.2539     0.6843 H       
  47 H47            5.2974     0.5041     1.6851 H       
  48 H48            4.2683     0.5286     3.1371 H       
  49 H49            5.2873    -0.8895     2.7923 H       
  50 H50           -2.1863    -3.6818     1.4656 H       
  51 H51           -4.0649    -1.8289    -1.1615 H       
  52 H52           -4.4954    -3.2705    -2.1127 H       
  53 H53           -5.2534    -2.9918    -0.5265 H       
  54 H54           -3.8360    -5.1156     2.4718 H       
  55 H55           -5.8047    -5.5783     3.6106 H       
  56 H56           -5.9090    -3.8234     3.8894 H       
  57 H57           -6.5986    -4.5320     2.4093 H       
  58 H58           -1.1199    -4.0707    -0.7621 H       
  59 H59           -2.0816    -3.9005    -2.2503 H       
  60 H60           -1.6510    -2.4589    -1.2991 H       
  61 H61           -4.5611    -5.2453     0.1350 H       
  62 H62           -3.6463    -5.5596    -1.3592 H       
  63 H63           -2.8386    -5.6852     0.2219 H       
@<TRIPOS>BOND
   1    1    2 1
   2    1    7 1
   3    1    8 1
   4    2    3 1
   5    2   10 2
   6    3    4 1
   7    3   34 1
   8    3   35 1
   9    4    5 1
  10    4   23 1
  11    5    6 1
  12    5   36 1
  13    5   37 1
  14    6    7 1
  15    6   38 1
  16    6   39 1
  17    7   40 1
  18    7   41 1
  19    8    9 2
  20    8   14 1
  21    9   10 1
  22   10   11 1
  23   11   12 2
  24   11   13 am
  25   13   26 1
  26   13   42 1
  27   14   15 ar
  28   14   19 ar
  29   15   16 ar
  30   15   22 1
  31   16   17 ar
  32   16   43 1
  33   17   18 ar
  34   17   21 1
  35   18   19 ar
  36   18   20 1
  37   19   44 1
  38   23   24 1
  39   23   45 1
  40   23   46 1
  41   24   47 1
  42   24   48 1
  43   24   49 1
  44   25   29 2
  45   25   30 am
  46   25   26 1
  47   26   27 1
  48   26   50 1
  49   27   28 1
  50   27   32 1
  51   27   33 1
  52   28   51 1
  53   28   52 1
  54   28   53 1
  55   30   31 1
  56   30   54 1
  57   31   55 1
  58   31   56 1
  59   31   57 1
  60   32   58 1
  61   32   59 1
  62   32   60 1
  63   33   61 1
  64   33   62 1
  65   33   63 1

#	End of record

