#	Name: ASD06600075
#	Creating user name:	WinNT
#	Creation time:	15. 06. 2019 21:07

#	Modifying user name:	WinNT
#	Modification time:	15. 06. 2019 21:07

#	Program:	/corina/corina34_cracker 3.40 0067  02.08.2006

@<TRIPOS>MOLECULE
ASD06600075
 362  362    0    0    0
SMALL
NO_CHARGES


@<TRIPOS>ATOM
   1 C1            -4.1699    -1.8569   -14.4505 C.2     
   2 O2            -4.2627    -3.0383   -14.1924 O.2     
   3 N3            -1.7897    -2.2420   -14.7524 N.3     
   4 C4            -2.8910    -1.3106   -15.0311 C.3     
   5 C5            -3.0478    -1.1444   -16.5439 C.3     
   6 C6            -1.7967    -0.4745   -17.1158 C.3     
   7 C7            -1.9536    -0.3083   -18.6286 C.3     
   8 N8            -0.7556     0.3331   -19.1762 N.pl3   
   9 C9            -0.6672     0.5869   -20.5241 C.2     
  10 N10           -1.5969     0.1600   -21.3292 N.2     
  11 N11            0.4083     1.2951   -21.0245 N.am    
  12 C12           -7.6071    -0.6750   -14.0607 C.2     
  13 O13           -7.4057     0.3075   -14.7427 O.2     
  14 N14           -5.2125    -1.0336   -14.2233 N.am    
  15 C15           -6.4578    -1.5657   -13.6645 C.3     
  16 C16           -6.3526    -1.6141   -12.1389 C.3     
  17 C17           -5.2676    -2.6140   -11.7341 C.3     
  18 C18           -5.0755    -2.5717   -10.2168 C.3     
  19 C19           -5.6895    -4.0230   -12.1557 C.3     
  20 C20          -11.0901    -0.2451   -13.0374 C.2     
  21 O21          -10.9633    -0.9948   -12.0925 O.2     
  22 N22           -8.8587    -0.9702   -13.6572 N.am    
  23 C23           -9.9759    -0.1044   -14.0423 C.3     
  24 C24          -10.4834    -0.5122   -15.4269 C.3     
  25 C25           -9.3922    -0.2517   -16.4672 C.3     
  26 C26           -9.8997    -0.6595   -17.8518 C.3     
  27 N27           -8.8548    -0.4101   -18.8479 N.pl3   
  28 C28           -9.0837    -0.7013   -20.1719 C.2     
  29 N29           -8.1540    -0.4794   -21.0581 N.2     
  30 N30          -10.2931    -1.2267   -20.5610 N.pl3   
  31 C31          -14.6221     0.6807   -12.8630 C.2     
  32 O32          -14.6496     1.0151   -14.0285 O.2     
  33 N33          -12.2273     0.4623   -13.1886 N.am    
  34 C34          -13.3104     0.3255   -12.2117 C.3     
  35 C35          -13.0553     1.2663   -11.0324 C.3     
  36 C36          -11.7879     0.8284   -10.2956 C.3     
  37 C37          -11.5367     1.7550    -9.1340 C.2     
  38 O38          -12.2965     2.6751    -8.9169 O.2     
  39 N39          -10.4676     1.5613    -8.3364 N.am    
  40 C40          -18.0163     1.4287   -11.7303 C.2     
  41 O41          -17.6801     1.4625   -10.5655 O.2     
  42 N42          -15.7648     0.6267   -12.1503 N.am    
  43 C43          -17.0400     0.9719   -12.7835 C.3     
  44 C44          -17.6021    -0.2567   -13.5015 C.3     
  45 C45          -21.6200     2.0141   -11.5456 C.2     
  46 O46          -21.8115     1.5275   -12.6399 O.2     
  47 N47          -19.2632     1.7996   -12.0828 N.am    
  48 C48          -20.2123     2.2437   -11.0590 C.3     
  49 C49          -20.0047     3.7343   -10.7833 C.3     
  50 C50          -18.6190     3.9518   -10.1722 C.3     
  51 C51          -18.4146     5.4199    -9.9006 C.2     
  52 O52          -19.2909     6.2141   -10.1694 O.2     
  53 N53          -17.2579     5.8504    -9.3591 N.am    
  54 C54          -24.9688     3.0821   -10.5417 C.2     
  55 O55          -24.5344     3.8720    -9.7303 O.2     
  56 N56          -22.6660     2.3495   -10.7648 N.am    
  57 C57          -24.0345     2.1263   -11.2378 C.3     
  58 C58          -24.4529     0.6876   -10.9280 C.3     
  59 C59          -23.5835    -0.2808   -11.7326 C.3     
  60 C60          -24.0019    -1.7195   -11.4228 C.3     
  61 N61          -23.1695    -2.6468   -12.1932 N.pl3   
  62 C62          -23.3634    -4.0029   -12.0776 C.2     
  63 N63          -24.2879    -4.4637   -11.2827 N.2     
  64 N64          -22.5822    -4.8731   -12.8005 N.pl3   
  65 C65          -28.5860     3.4078   -10.1258 C.2     
  66 O66          -28.8983     2.5565   -10.9312 O.2     
  67 N67          -26.2871     3.0592   -10.8208 N.am    
  68 C68          -27.1954     3.9884   -10.1440 C.3     
  69 C69          -27.2097     5.3231   -10.8918 C.3     
  70 C70          -25.8266     5.9715   -10.8045 C.3     
  71 C71          -25.8410     7.3062   -11.5522 C.3     
  72 N72          -24.5167     7.9270   -11.4686 N.pl3   
  73 C73          -24.2876     9.1417   -12.0706 C.2     
  74 N74          -23.1093     9.6940   -11.9962 N.2     
  75 N75          -25.3013     9.7736   -12.7511 N.pl3   
  76 C76          -31.5949     3.7982   -10.4296 C.2     
  77 O77          -30.9807     4.3462   -11.3203 O.2     
  78 N78          -29.4825     3.8346    -9.2146 N.am    
  79 C79          -30.8944     3.4303    -9.1470 C.3     
  80 C80          -31.5323     4.1892    -7.9643 C.3     
  81 C81          -30.5874     5.4063    -7.7822 C.3     
  82 C82          -29.2083     4.7794    -8.1166 C.3     
  83 C83          -35.0591     4.0437   -11.5705 C.2     
  84 O84          -35.4979     3.8807   -10.4517 O.2     
  85 N85          -32.9039     3.5182   -10.5868 N.am    
  86 C86          -33.5848     3.8759   -11.8336 C.3     
  87 C87          -33.3740     2.7667   -12.8661 C.3     
  88 C88          -31.8895     2.6804   -13.2261 C.3     
  89 C89          -31.6819     1.5878   -14.2431 C.2     
  90 O90          -32.6281     0.9418   -14.6408 O.2     
  91 N91          -30.4447     1.3286   -14.7106 N.am    
  92 C92          -38.0918     4.2949   -13.5962 C.2     
  93 O93          -37.5004     4.0130   -14.6168 O.2     
  94 N94          -35.8901     4.3751   -12.5786 N.am    
  95 C95          -37.3234     4.5382   -12.3228 C.3     
  96 C96          -37.5944     5.9602   -11.8274 C.3     
  97 C97          -36.9153     6.1661   -10.4719 C.3     
  98 C98          -37.1863     7.5881    -9.9764 C.3     
  99 N99          -36.5361     7.7852    -8.6785 N.pl3   
 100 C100         -36.6416     8.9948    -8.0335 C.2     
 101 N101         -37.3200     9.9661    -8.5768 N.2     
 102 N102         -36.0314     9.1798    -6.8155 N.pl3   
 103 C103         -41.5013     4.8818   -14.7767 C.2     
 104 O104         -41.7885     5.5338   -13.7952 O.2     
 105 N105         -39.4361     4.3906   -13.6007 N.am    
 106 C106         -40.1831     4.1541   -14.8386 C.3     
 107 C107         -40.4358     2.6541   -15.0031 C.3     
 108 C108         -39.1013     1.9297   -15.1909 C.3     
 109 C109         -39.3503     0.4523   -15.3529 C.2     
 110 O110         -40.4834     0.0212   -15.3213 O.2     
 111 N111         -38.3136    -0.3900   -15.5330 N.am    
 112 C112         -44.6357     4.8336   -16.6572 C.2     
 113 O113         -44.3056     3.8533   -17.2904 O.2     
 114 N114         -42.3610     4.8081   -15.8120 N.am    
 115 C115         -43.6425     5.5155   -15.7518 C.3     
 116 C116         -43.4477     6.9632   -16.2069 C.3     
 117 C117         -42.5367     7.6910   -15.2163 C.3     
 118 C118         -42.3420     9.1387   -15.6713 C.3     
 119 C119         -41.4310     9.8665   -14.6807 C.3     
 120 N120         -41.2440    11.2565   -15.1176 N.3     
 121 C121         -47.9091     5.6406   -18.0703 C.2     
 122 O122         -47.8580     6.7870   -17.6780 O.2     
 123 N123         -45.8908     5.3132   -16.7632 N.am    
 124 C124         -46.8563     4.6504   -17.6434 C.3     
 125 C125         -47.5189     3.4929   -16.8937 C.3     
 126 C126         -51.1970     5.4792   -19.6598 C.2     
 127 O127         -51.1892     4.2703   -19.7571 O.2     
 128 N128         -48.9075     5.2520   -18.8880 N.am    
 129 C129         -49.9310     6.2146   -19.3030 C.3     
 130 C130         -49.4334     6.9944   -20.5218 C.3     
 131 C131         -48.2267     7.8467   -20.1240 C.3     
 132 C132         -49.0245     6.0136   -21.6226 C.3     
 133 C133         -53.5146     5.3293   -21.8218 C.2     
 134 O134         -52.5810     5.7772   -22.4533 O.2     
 135 N135         -52.3380     6.1648   -19.8708 N.am    
 136 C136         -53.5422     5.4623   -20.3210 C.3     
 137 C137         -54.7818     6.2551   -19.9019 C.3     
 138 C138         -54.8769     6.2838   -18.3752 C.3     
 139 C139         -56.1165     7.0766   -17.9561 C.3     
 140 N140         -56.2075     7.1040   -16.4942 N.pl3   
 141 C141         -57.2473     7.7634   -15.8825 C.2     
 142 N142         -58.1521     8.3642   -16.6031 N.2     
 143 N143         -57.3327     7.7891   -14.5105 N.pl3   
 144 C144         -55.9093     4.4491   -24.4398 C.2     
 145 O145         -56.8401     4.4604   -23.6696 O.2     
 146 N146         -54.5274     4.7126   -22.4624 N.am    
 147 C147         -54.5006     4.5832   -23.9215 C.3     
 148 C148         -53.6943     3.3419   -24.3087 C.3     
 149 C149         -52.2641     3.4781   -23.7824 C.3     
 150 C150         -54.3461     2.0995   -23.6985 C.3     
 151 O151         -56.1299     4.3171   -25.7573 O.3     
 152 C152           1.3284     1.8070   -20.1832 C.2     
 153 O153           1.2727     1.5558   -18.9983 O.2     
 154 C154          16.5434    12.0796   -16.4194 C.3     
 155 C155          15.4286    11.1816   -15.8794 C.3     
 156 C156          14.5267    10.7385   -17.0331 C.3     
 157 C157          13.4119     9.8405   -16.4931 C.3     
 158 C158          12.5100     9.3973   -17.6468 C.3     
 159 C159          11.3952     8.4993   -17.1067 C.3     
 160 C160          10.4933     8.0562   -18.2605 C.3     
 161 C161           9.3785     7.1581   -17.7204 C.3     
 162 C162           8.4765     6.7150   -18.8741 C.3     
 163 C163           7.3618     5.8170   -18.3341 C.3     
 164 C164           6.4598     5.3738   -19.4878 C.3     
 165 C165           5.3450     4.4758   -18.9477 C.3     
 166 C166           4.4431     4.0327   -20.1015 C.3     
 167 C167           3.3283     3.1346   -19.5614 C.3     
 168 C168           2.4264     2.6915   -20.7151 C.3     
 169 H169          -1.6238    -2.3191   -13.7601 H       
 170 H170          -1.9695    -3.1471   -15.1604 H       
 171 H171          -2.6714    -0.3429   -14.5800 H       
 172 H172          -3.1790    -2.1231   -17.0053 H       
 173 H173          -3.9196    -0.5244   -16.7529 H       
 174 H174          -1.6656     0.5042   -16.6544 H       
 175 H175          -0.9249    -1.0945   -16.9068 H       
 176 H176          -2.0848    -1.2871   -19.0900 H       
 177 H177          -2.8254     0.3117   -18.8376 H       
 178 H178          -0.0249     0.5787   -18.5874 H       
 179 H179          -1.5731     0.4007   -22.2685 H       
 180 H180           0.5012     1.4239   -21.9815 H       
 181 H181          -5.1383    -0.0887   -14.4298 H       
 182 H182          -6.6282    -2.5712   -14.0491 H       
 183 H183          -6.0943    -0.6249   -11.7609 H       
 184 H184          -7.3088    -1.9256   -11.7185 H       
 185 H185          -4.3308    -2.3527   -12.2263 H       
 186 H186          -6.0123    -2.8330    -9.7246 H       
 187 H187          -4.3025    -3.2841    -9.9284 H       
 188 H188          -4.7749    -1.5680    -9.9165 H       
 189 H189          -5.8263    -4.0531   -13.2367 H       
 190 H190          -4.9165    -4.7353   -11.8673 H       
 191 H191          -6.6263    -4.2843   -11.6635 H       
 192 H192          -9.0197    -1.7560   -13.1118 H       
 193 H193          -9.6397     0.9321   -14.0694 H       
 194 H194         -10.7364    -1.5724   -15.4234 H       
 195 H195         -11.3694     0.0719   -15.6757 H       
 196 H196          -9.1392     0.8085   -16.4707 H       
 197 H197          -8.5062    -0.8358   -16.2184 H       
 198 H198         -10.1527    -1.7197   -17.8482 H       
 199 H199         -10.7857    -0.0754   -18.1005 H       
 200 H200          -8.0015    -0.0395   -18.5733 H       
 201 H201          -8.3155    -0.6849   -21.9922 H       
 202 H202         -10.9850    -1.3918   -19.9015 H       
 203 H203         -10.4546    -1.4321   -21.4952 H       
 204 H204         -12.3286     1.0619   -13.9444 H       
 205 H205         -13.3492    -0.7034   -11.8539 H       
 206 H206         -12.9281     2.2843   -11.4006 H       
 207 H207         -13.9036     1.2305   -10.3489 H       
 208 H208         -11.9151    -0.1896    -9.9273 H       
 209 H209         -10.9396     0.8642   -10.9790 H       
 210 H210          -9.8599     0.8255    -8.5101 H       
 211 H211         -10.3059     2.1578    -7.5888 H       
 212 H212         -15.7429     0.3592   -11.2182 H       
 213 H213         -16.8822     1.7737   -13.5048 H       
 214 H214         -17.7599    -1.0585   -12.7801 H       
 215 H215         -18.5509     0.0002   -13.9725 H       
 216 H216         -16.8959    -0.5871   -14.2632 H       
 217 H217         -19.5321     1.7726   -13.0144 H       
 218 H218         -20.0482     1.6782   -10.1417 H       
 219 H219         -20.0813     4.2907   -11.7175 H       
 220 H220         -20.7675     4.0848   -10.0881 H       
 221 H221         -18.5425     3.3954    -9.2380 H       
 222 H222         -17.8563     3.6012   -10.8674 H       
 223 H223         -16.5570     5.2152    -9.1442 H       
 224 H224         -17.1263     6.7954    -9.1843 H       
 225 H225         -22.5128     2.7387    -9.8896 H       
 226 H226         -24.0788     2.2939   -12.3139 H       
 227 H227         -24.3239     0.4930    -9.8634 H       
 228 H228         -25.4993     0.5472   -11.1989 H       
 229 H229         -23.7125    -0.0861   -12.7973 H       
 230 H230         -22.5371    -0.1404   -11.4617 H       
 231 H231         -23.8729    -1.9142   -10.3581 H       
 232 H232         -25.0484    -1.8599   -11.6937 H       
 233 H233         -22.4815    -2.3039   -12.7848 H       
 234 H234         -24.4247    -5.4205   -11.2011 H       
 235 H235         -21.8942    -4.5302   -13.3921 H       
 236 H236         -22.7190    -5.8299   -12.7190 H       
 237 H237         -26.6346     2.4275   -11.4697 H       
 238 H238         -26.8552     4.1487    -9.1210 H       
 239 H239         -27.4649     5.1510   -11.9375 H       
 240 H240         -27.9500     5.9841   -10.4411 H       
 241 H241         -25.5714     6.1435    -9.7588 H       
 242 H242         -25.0864     5.3104   -11.2551 H       
 243 H243         -26.0962     7.1342   -12.5979 H       
 244 H244         -26.5812     7.9672   -11.1016 H       
 245 H245         -23.8014     7.4811   -10.9885 H       
 246 H246         -22.9477    10.5510   -12.4209 H       
 247 H247         -26.1782     9.3626   -12.8065 H       
 248 H248         -25.1397    10.6306   -13.1758 H       
 249 H249         -30.9646     2.3552    -8.9817 H       
 250 H250         -32.5406     4.5180    -8.2158 H       
 251 H251         -31.5401     3.5694    -7.0676 H       
 252 H252         -30.8379     6.2035    -8.4820 H       
 253 H253         -30.6109     5.7689    -6.7545 H       
 254 H254         -28.8098     4.2500    -7.2511 H       
 255 H255         -28.5112     5.5504    -8.4447 H       
 256 H256         -33.3951     3.0800    -9.8744 H       
 257 H257         -33.1752     4.8109   -12.2160 H       
 258 H258         -33.7027     1.8148   -12.4490 H       
 259 H259         -33.9528     2.9898   -13.7624 H       
 260 H260         -31.5608     3.6323   -13.6432 H       
 261 H261         -31.3107     2.4572   -12.3298 H       
 262 H262         -29.6879     1.8453   -14.3925 H       
 263 H263         -30.3110     0.6254   -15.3652 H       
 264 H264         -35.5392     4.5055   -13.4734 H       
 265 H265         -37.6409     3.8226   -11.5645 H       
 266 H266         -37.1967     6.6772   -12.5456 H       
 267 H267         -38.6689     6.1096   -11.7219 H       
 268 H268         -37.3130     5.4491    -9.7536 H       
 269 H269         -35.8408     6.0167   -10.5774 H       
 270 H270         -36.7886     8.3050   -10.6947 H       
 271 H271         -38.2609     7.7374    -9.8709 H       
 272 H272         -36.0312     7.0624    -8.2742 H       
 273 H273         -37.3944    10.8195    -8.1217 H       
 274 H274         -35.5265     8.4569    -6.4112 H       
 275 H275         -36.1058    10.0332    -6.3604 H       
 276 H276         -39.9091     4.6161   -12.7844 H       
 277 H277         -39.6054     4.5205   -15.6872 H       
 278 H278         -40.9356     2.2702   -14.1138 H       
 279 H279         -41.0667     2.4855   -15.8758 H       
 280 H280         -38.6015     2.3136   -16.0802 H       
 281 H281         -38.4704     2.0983   -14.3182 H       
 282 H282         -37.4073    -0.0452   -15.5583 H       
 283 H283         -38.4738    -1.3410   -15.6373 H       
 284 H284         -42.1313     4.2866   -16.5970 H       
 285 H285         -44.0163     5.5036   -14.7280 H       
 286 H286         -42.9910     6.9747   -17.1965 H       
 287 H287         -44.4147     7.4646   -16.2471 H       
 288 H288         -42.9934     7.6795   -14.2266 H       
 289 H289         -41.5697     7.1896   -15.1760 H       
 290 H290         -41.8853     9.1502   -16.6610 H       
 291 H291         -43.3090     9.6401   -15.7116 H       
 292 H292         -41.8877     9.8550   -13.6911 H       
 293 H293         -40.4640     9.3651   -14.6405 H       
 294 H294         -40.6454    11.7588   -14.4792 H       
 295 H295         -40.8816    11.2942   -16.0585 H       
 296 H296         -46.1548     6.0973   -16.2568 H       
 297 H297         -46.3411     4.2657   -18.5236 H       
 298 H298         -48.2373     2.9997   -17.5485 H       
 299 H299         -46.7574     2.7767   -16.5849 H       
 300 H300         -48.0340     3.8776   -16.0135 H       
 301 H301         -48.9484     4.3351   -19.2018 H       
 302 H302         -50.1312     6.9072   -18.4855 H       
 303 H303         -50.2300     7.6414   -20.8891 H       
 304 H304         -47.4204     7.1978   -19.7821 H       
 305 H305         -47.8889     8.4227   -20.9856 H       
 306 H306         -48.5110     8.5268   -19.3211 H       
 307 H307         -49.8842     5.4064   -21.9060 H       
 308 H308         -48.6701     6.5692   -22.4908 H       
 309 H309         -48.2279     5.3666   -21.2553 H       
 310 H310         -52.3619     7.1234   -19.7246 H       
 311 H311         -53.5749     4.4710   -19.8689 H       
 312 H312         -54.7062     7.2745   -20.2805 H       
 313 H313         -55.6728     5.7802   -20.3126 H       
 314 H314         -54.9524     5.2644   -17.9967 H       
 315 H315         -53.9859     6.7587   -17.9645 H       
 316 H316         -56.0409     8.0960   -18.3346 H       
 317 H317         -57.0075     6.6017   -18.3668 H       
 318 H318         -55.5342     6.6569   -15.9579 H       
 319 H319         -58.8857     8.8294   -16.1715 H       
 320 H320         -56.6594     7.3420   -13.9742 H       
 321 H321         -58.0663     8.2543   -14.0789 H       
 322 H322         -55.2741     4.3543   -21.9574 H       
 323 H323         -54.0362     5.4684   -24.3562 H       
 324 H324         -53.6743     3.2457   -25.3943 H       
 325 H325         -52.2841     3.5744   -22.6968 H       
 326 H326         -51.6897     2.5938   -24.0583 H       
 327 H327         -51.7997     4.3633   -24.2172 H       
 328 H328         -55.3650     2.0025   -24.0734 H       
 329 H329         -53.7717     1.2152   -23.9743 H       
 330 H330         -54.3661     2.1958   -22.6129 H       
 331 H331         -57.0503     4.2343   -26.0421 H       
 332 H332          17.1335    11.5266   -17.1502 H       
 333 H333          16.1049    12.9568   -16.8954 H       
 334 H334          17.1859    12.3953   -15.5975 H       
 335 H335          15.8670    10.3045   -15.4034 H       
 336 H336          14.8384    11.7346   -15.1486 H       
 337 H337          14.0882    11.6156   -17.5091 H       
 338 H338          15.1168    10.1855   -17.7639 H       
 339 H339          13.8503     8.9633   -16.0171 H       
 340 H340          12.8217    10.3935   -15.7623 H       
 341 H341          12.0715    10.2744   -18.1227 H       
 342 H342          13.1001     8.8443   -18.3775 H       
 343 H343          11.8336     7.6222   -16.6308 H       
 344 H344          10.8050     9.0523   -16.3760 H       
 345 H345          10.0548     8.9333   -18.7364 H       
 346 H346          11.0834     7.5031   -18.9912 H       
 347 H347           9.8169     6.2810   -17.2445 H       
 348 H348           8.7883     7.7112   -16.9897 H       
 349 H349           8.0381     7.5921   -19.3501 H       
 350 H350           9.0667     6.1620   -19.6049 H       
 351 H351           7.8002     4.9399   -17.8581 H       
 352 H352           6.7716     6.3700   -17.6033 H       
 353 H353           6.0214     6.2509   -19.9638 H       
 354 H354           7.0500     4.8208   -20.2186 H       
 355 H355           5.7835     3.5987   -18.4718 H       
 356 H356           4.7549     5.0288   -18.2170 H       
 357 H357           4.0047     4.9098   -20.5774 H       
 358 H358           5.0333     3.4796   -20.8322 H       
 359 H359           3.7668     2.2575   -19.0855 H       
 360 H360           2.7382     3.6877   -18.8307 H       
 361 H361           3.0166     2.1385   -21.4459 H       
 362 H362           1.9880     3.5686   -21.1911 H       
@<TRIPOS>BOND
   1    1    2 2
   2    1    4 1
   3    1   14 am
   4    3    4 1
   5    3  169 1
   6    3  170 1
   7    4    5 1
   8    4  171 1
   9    5    6 1
  10    5  172 1
  11    5  173 1
  12    6    7 1
  13    6  174 1
  14    6  175 1
  15    7    8 1
  16    7  176 1
  17    7  177 1
  18    8    9 1
  19    8  178 1
  20    9   10 2
  21    9   11 1
  22   10  179 1
  23   11  152 am
  24   11  180 1
  25   12   13 2
  26   12   15 1
  27   12   22 am
  28   14   15 1
  29   14  181 1
  30   15   16 1
  31   15  182 1
  32   16   17 1
  33   16  183 1
  34   16  184 1
  35   17   18 1
  36   17   19 1
  37   17  185 1
  38   18  186 1
  39   18  187 1
  40   18  188 1
  41   19  189 1
  42   19  190 1
  43   19  191 1
  44   20   21 2
  45   20   23 1
  46   20   33 am
  47   22   23 1
  48   22  192 1
  49   23   24 1
  50   23  193 1
  51   24   25 1
  52   24  194 1
  53   24  195 1
  54   25   26 1
  55   25  196 1
  56   25  197 1
  57   26   27 1
  58   26  198 1
  59   26  199 1
  60   27   28 1
  61   27  200 1
  62   28   29 2
  63   28   30 1
  64   29  201 1
  65   30  202 1
  66   30  203 1
  67   31   32 2
  68   31   34 1
  69   31   42 am
  70   33   34 1
  71   33  204 1
  72   34   35 1
  73   34  205 1
  74   35   36 1
  75   35  206 1
  76   35  207 1
  77   36   37 1
  78   36  208 1
  79   36  209 1
  80   37   38 2
  81   37   39 am
  82   39  210 1
  83   39  211 1
  84   40   41 2
  85   40   43 1
  86   40   47 am
  87   42   43 1
  88   42  212 1
  89   43   44 1
  90   43  213 1
  91   44  214 1
  92   44  215 1
  93   44  216 1
  94   45   46 2
  95   45   48 1
  96   45   56 am
  97   47   48 1
  98   47  217 1
  99   48   49 1
 100   48  218 1
 101   49   50 1
 102   49  219 1
 103   49  220 1
 104   50   51 1
 105   50  221 1
 106   50  222 1
 107   51   52 2
 108   51   53 am
 109   53  223 1
 110   53  224 1
 111   54   55 2
 112   54   57 1
 113   54   67 am
 114   56   57 1
 115   56  225 1
 116   57   58 1
 117   57  226 1
 118   58   59 1
 119   58  227 1
 120   58  228 1
 121   59   60 1
 122   59  229 1
 123   59  230 1
 124   60   61 1
 125   60  231 1
 126   60  232 1
 127   61   62 1
 128   61  233 1
 129   62   63 2
 130   62   64 1
 131   63  234 1
 132   64  235 1
 133   64  236 1
 134   65   66 2
 135   65   68 1
 136   65   78 am
 137   67   68 1
 138   67  237 1
 139   68   69 1
 140   68  238 1
 141   69   70 1
 142   69  239 1
 143   69  240 1
 144   70   71 1
 145   70  241 1
 146   70  242 1
 147   71   72 1
 148   71  243 1
 149   71  244 1
 150   72   73 1
 151   72  245 1
 152   73   74 2
 153   73   75 1
 154   74  246 1
 155   75  247 1
 156   75  248 1
 157   76   77 2
 158   76   85 am
 159   76   79 1
 160   78   79 1
 161   78   82 1
 162   79   80 1
 163   79  249 1
 164   80   81 1
 165   80  250 1
 166   80  251 1
 167   81   82 1
 168   81  252 1
 169   81  253 1
 170   82  254 1
 171   82  255 1
 172   83   84 2
 173   83   86 1
 174   83   94 am
 175   85   86 1
 176   85  256 1
 177   86   87 1
 178   86  257 1
 179   87   88 1
 180   87  258 1
 181   87  259 1
 182   88   89 1
 183   88  260 1
 184   88  261 1
 185   89   90 2
 186   89   91 am
 187   91  262 1
 188   91  263 1
 189   92   93 2
 190   92   95 1
 191   92  105 am
 192   94   95 1
 193   94  264 1
 194   95   96 1
 195   95  265 1
 196   96   97 1
 197   96  266 1
 198   96  267 1
 199   97   98 1
 200   97  268 1
 201   97  269 1
 202   98   99 1
 203   98  270 1
 204   98  271 1
 205   99  100 1
 206   99  272 1
 207  100  101 2
 208  100  102 1
 209  101  273 1
 210  102  274 1
 211  102  275 1
 212  103  104 2
 213  103  106 1
 214  103  114 am
 215  105  106 1
 216  105  276 1
 217  106  107 1
 218  106  277 1
 219  107  108 1
 220  107  278 1
 221  107  279 1
 222  108  109 1
 223  108  280 1
 224  108  281 1
 225  109  110 2
 226  109  111 am
 227  111  282 1
 228  111  283 1
 229  112  113 2
 230  112  115 1
 231  112  123 am
 232  114  115 1
 233  114  284 1
 234  115  116 1
 235  115  285 1
 236  116  117 1
 237  116  286 1
 238  116  287 1
 239  117  118 1
 240  117  288 1
 241  117  289 1
 242  118  119 1
 243  118  290 1
 244  118  291 1
 245  119  120 1
 246  119  292 1
 247  119  293 1
 248  120  294 1
 249  120  295 1
 250  121  122 2
 251  121  124 1
 252  121  128 am
 253  123  124 1
 254  123  296 1
 255  124  125 1
 256  124  297 1
 257  125  298 1
 258  125  299 1
 259  125  300 1
 260  126  127 2
 261  126  129 1
 262  126  135 am
 263  128  129 1
 264  128  301 1
 265  129  130 1
 266  129  302 1
 267  130  131 1
 268  130  132 1
 269  130  303 1
 270  131  304 1
 271  131  305 1
 272  131  306 1
 273  132  307 1
 274  132  308 1
 275  132  309 1
 276  133  134 2
 277  133  136 1
 278  133  146 am
 279  135  136 1
 280  135  310 1
 281  136  137 1
 282  136  311 1
 283  137  138 1
 284  137  312 1
 285  137  313 1
 286  138  139 1
 287  138  314 1
 288  138  315 1
 289  139  140 1
 290  139  316 1
 291  139  317 1
 292  140  141 1
 293  140  318 1
 294  141  142 2
 295  141  143 1
 296  142  319 1
 297  143  320 1
 298  143  321 1
 299  144  145 2
 300  144  147 1
 301  144  151 1
 302  146  147 1
 303  146  322 1
 304  147  148 1
 305  147  323 1
 306  148  149 1
 307  148  150 1
 308  148  324 1
 309  149  325 1
 310  149  326 1
 311  149  327 1
 312  150  328 1
 313  150  329 1
 314  150  330 1
 315  151  331 1
 316  152  153 2
 317  152  168 1
 318  154  155 1
 319  154  332 1
 320  154  333 1
 321  154  334 1
 322  155  156 1
 323  155  335 1
 324  155  336 1
 325  156  157 1
 326  156  337 1
 327  156  338 1
 328  157  158 1
 329  157  339 1
 330  157  340 1
 331  158  159 1
 332  158  341 1
 333  158  342 1
 334  159  160 1
 335  159  343 1
 336  159  344 1
 337  160  161 1
 338  160  345 1
 339  160  346 1
 340  161  162 1
 341  161  347 1
 342  161  348 1
 343  162  163 1
 344  162  349 1
 345  162  350 1
 346  163  164 1
 347  163  351 1
 348  163  352 1
 349  164  165 1
 350  164  353 1
 351  164  354 1
 352  165  166 1
 353  165  355 1
 354  165  356 1
 355  166  167 1
 356  166  357 1
 357  166  358 1
 358  167  168 1
 359  167  359 1
 360  167  360 1
 361  168  361 1
 362  168  362 1

#	End of record

