#	Name: ASD01410355
#	Creating user name:	WinNT
#	Creation time:	15. 06. 2019 19:17

#	Modifying user name:	WinNT
#	Modification time:	15. 06. 2019 19:17

#	Program:	/corina/corina34_cracker 3.40 0067  02.08.2006

@<TRIPOS>MOLECULE
ASD01410355
  74   79    0    0    0
SMALL
NO_CHARGES


@<TRIPOS>ATOM
   1 N1             0.0812     1.5593     0.4246 N.pl3   
   2 C2             0.1224     0.1911     0.5699 C.2     
   3 C3            -1.1481    -0.2886     0.6641 C.2     
   4 C4            -2.0334     0.8104     0.5761 C.ar    
   5 C5            -1.2383     1.9665     0.4315 C.ar    
   6 C6            -3.4318     0.9220     0.6106 C.ar    
   7 C7            -4.0205     2.1435     0.4988 C.ar    
   8 C8            -3.2376     3.2986     0.3486 C.ar    
   9 C9            -1.8459     3.2061     0.3204 C.ar    
  10 C10           -2.3282    -1.9001     2.1336 C.3     
  11 C11           -2.7272    -3.3672     2.3043 C.3     
  12 C12           -3.5979    -3.7997     1.1228 C.3     
  13 C13           -2.8108    -3.6333    -0.1786 C.3     
  14 C14           -2.4118    -2.1661    -0.3493 C.3     
  15 C15           -1.5411    -1.7337     0.8322 C.3     
  16 C16            1.2452     2.4388     0.2912 C.3     
  17 C17            1.5967     2.5891    -1.1665 C.2     
  18 O18            0.9397     2.0178    -2.0108 O.2     
  19 C19            2.9963     3.5147    -2.9491 C.3     
  20 N20            2.6413     3.3584    -1.5320 N.am    
  21 C21            3.4463     4.0572    -0.5208 C.3     
  22 C22            4.4754     3.1589    -3.1290 C.3     
  23 C23            4.9204     3.6953    -0.7279 C.3     
  24 C24            5.3193     4.0047    -2.1727 C.3     
  25 C25            2.8140    -2.1359     1.2320 C.2     
  26 C26            3.3528    -1.4781     0.1853 C.2     
  27 O27            1.6024    -1.6177     1.4894 O.3     
  28 C28            1.3458    -0.6238     0.6160 C.2     
  29 C29            2.4183    -0.5057    -0.2172 C.2     
  30 C30            8.6341     4.4951    -3.6556 C.3     
  31 C31            7.1736     4.0146    -3.7424 C.3     
  32 N32            6.7412     3.6899    -2.3658 N.3     
  33 C33            7.5946     4.5107    -1.4691 C.3     
  34 C34            8.9848     4.4513    -2.1506 C.3     
  35 C35           -3.8880     4.6152     0.2282 C.2     
  36 O36           -3.2124     5.6170     0.0981 O.2     
  37 O37           -5.2321     4.7084     0.2624 O.3     
  38 H38           -4.0411     0.0378     0.7255 H       
  39 H39           -5.0971     2.2248     0.5255 H       
  40 H40           -1.2454     4.0963     0.2048 H       
  41 H41           -3.2249    -1.2815     2.0975 H       
  42 H42           -1.7079    -1.5920     2.9753 H       
  43 H43           -1.8305    -3.9858     2.3403 H       
  44 H44           -3.2879    -3.4858     3.2314 H       
  45 H45           -3.8822    -4.8449     1.2444 H       
  46 H46           -4.4947    -3.1811     1.0867 H       
  47 H47           -1.9141    -4.2519    -0.1425 H       
  48 H48           -3.4311    -3.9414    -1.0203 H       
  49 H49           -1.8511    -2.0476    -1.2764 H       
  50 H50           -3.3086    -1.5476    -0.3854 H       
  51 H51           -0.6444    -2.3523     0.8682 H       
  52 H52            1.0114     3.4171     0.7113 H       
  53 H53            2.0906     2.0063     0.8261 H       
  54 H54            2.3836     2.8471    -3.5550 H       
  55 H55            2.8288     4.5470    -3.2561 H       
  56 H56            3.3155     5.1338    -0.6298 H       
  57 H57            3.1305     3.7476     0.4754 H       
  58 H58            4.6248     2.1020    -2.9083 H       
  59 H59            4.7762     3.3625    -4.1567 H       
  60 H60            5.5378     4.2807    -0.0467 H       
  61 H61            5.0656     2.6334    -0.5298 H       
  62 H62            5.1506     5.0619    -2.3776 H       
  63 H63            3.2784    -2.9484     1.7711 H       
  64 H64            4.3194    -1.6624    -0.2598 H       
  65 H65            2.5295     0.1981    -1.0288 H       
  66 H66            9.2866     3.8253    -4.2158 H       
  67 H67            8.7206     5.5133    -4.0348 H       
  68 H68            6.5460     4.8062    -4.1518 H       
  69 H69            7.1118     3.1258    -4.3704 H       
  70 H70            7.2311     5.5373    -1.4255 H       
  71 H71            7.6363     4.0736    -0.4714 H       
  72 H72            9.4974     3.5224    -1.9009 H       
  73 H73            9.5891     5.3140    -1.8701 H       
  74 H74           -5.6130     5.5934     0.1796 H       
@<TRIPOS>BOND
   1    1    2 1
   2    1   16 1
   3    1    5 1
   4    2    3 2
   5    2   28 1
   6    3    4 1
   7    3   15 1
   8    4    5 ar
   9    4    6 ar
  10    5    9 ar
  11    6    7 ar
  12    6   38 1
  13    7    8 ar
  14    7   39 1
  15    8    9 ar
  16    8   35 1
  17    9   40 1
  18   10   11 1
  19   10   15 1
  20   10   41 1
  21   10   42 1
  22   11   12 1
  23   11   43 1
  24   11   44 1
  25   12   13 1
  26   12   45 1
  27   12   46 1
  28   13   14 1
  29   13   47 1
  30   13   48 1
  31   14   15 1
  32   14   49 1
  33   14   50 1
  34   15   51 1
  35   16   17 1
  36   16   52 1
  37   16   53 1
  38   17   18 2
  39   17   20 am
  40   19   20 1
  41   19   22 1
  42   19   54 1
  43   19   55 1
  44   20   21 1
  45   21   23 1
  46   21   56 1
  47   21   57 1
  48   22   24 1
  49   22   58 1
  50   22   59 1
  51   23   24 1
  52   23   60 1
  53   23   61 1
  54   24   32 1
  55   24   62 1
  56   25   26 2
  57   25   27 1
  58   25   63 1
  59   26   29 1
  60   26   64 1
  61   27   28 1
  62   28   29 2
  63   29   65 1
  64   30   31 1
  65   30   34 1
  66   30   66 1
  67   30   67 1
  68   31   32 1
  69   31   68 1
  70   31   69 1
  71   32   33 1
  72   33   34 1
  73   33   70 1
  74   33   71 1
  75   34   72 1
  76   34   73 1
  77   35   36 2
  78   35   37 1
  79   37   74 1

#	End of record

