#	Name: ASD01230828
#	Creating user name:	WinNT
#	Creation time:	15. 06. 2019 19:15

#	Modifying user name:	WinNT
#	Modification time:	15. 06. 2019 19:15

#	Program:	/corina/corina34_cracker 3.40 0067  02.08.2006

@<TRIPOS>MOLECULE
ASD01230828
  40   41    0    0    0
SMALL
NO_CHARGES


@<TRIPOS>ATOM
   1 C1            -0.0897     1.2493    -0.0226 C.ar    
   2 C2             0.1149    -0.0891     0.3547 C.ar    
   3 C3             1.4198    -0.5946     0.3640 C.ar    
   4 C4             2.4543     0.2493    -0.0002 C.ar    
   5 C5             2.1739     1.5553    -0.3596 C.ar    
   6 N6             0.9371     2.0131    -0.3619 N.ar    
   7 C7            -1.0242    -0.9447     0.7342 C.2     
   8 O8            -2.1387    -0.4672     0.8272 O.2     
   9 N9            -0.8303    -2.2559     0.9780 N.am    
  10 N10           -1.9128    -3.0689     1.3386 N.am    
  11 C11           -1.7190    -4.3802     1.5823 C.2     
  12 O12           -0.6049    -4.8575     1.4893 O.2     
  13 C13           -2.8613    -5.2382     1.9629 C.ar    
  14 C14           -2.6639    -6.5965     2.2160 C.ar    
  15 C15           -3.7342    -7.3916     2.5706 C.ar    
  16 C16           -5.0010    -6.8452     2.6756 C.ar    
  17 C17           -5.2034    -5.4994     2.4260 C.ar    
  18 C18           -4.1408    -4.6921     2.0762 C.ar    
  19 C19           -6.1655    -7.7198     3.0629 C.3     
  20 C20           -6.7915    -7.1925     4.3556 C.3     
  21 C21           -7.2107    -7.7017     1.9458 C.3     
  22 N22           -1.3706     1.7693    -0.0449 N.pl3   
  23 H23            1.6147    -1.6180     0.6486 H       
  24 H24            3.4731    -0.1091    -0.0034 H       
  25 H25            2.9828     2.2122    -0.6434 H       
  26 H26            0.0587    -2.6368     0.9037 H       
  27 H27           -2.8018    -2.6881     1.4128 H       
  28 H28           -1.6757    -7.0243     2.1341 H       
  29 H29           -3.5829    -8.4428     2.7664 H       
  30 H30           -6.1948    -5.0791     2.5097 H       
  31 H31           -4.2993    -3.6408     1.8863 H       
  32 H32           -5.8171    -8.7409     3.2181 H       
  33 H33           -7.6337    -7.8251     4.6358 H       
  34 H34           -6.0468    -7.2054     5.1515 H       
  35 H35           -7.1398    -6.1714     4.2005 H       
  36 H36           -6.7647    -8.0773     1.0248 H       
  37 H37           -8.0530    -8.3343     2.2260 H       
  38 H38           -7.5590    -6.6805     1.7906 H       
  39 H39           -2.1338     1.1758    -0.1241 H       
  40 H40           -1.5062     2.7277     0.0187 H       
@<TRIPOS>BOND
   1    1    2 ar
   2    1    6 ar
   3    1   22 1
   4    2    3 ar
   5    2    7 1
   6    3    4 ar
   7    3   23 1
   8    4    5 ar
   9    4   24 1
  10    5    6 ar
  11    5   25 1
  12    7    8 2
  13    7    9 am
  14    9   10 1
  15    9   26 1
  16   10   11 am
  17   10   27 1
  18   11   12 2
  19   11   13 1
  20   13   14 ar
  21   13   18 ar
  22   14   15 ar
  23   14   28 1
  24   15   16 ar
  25   15   29 1
  26   16   17 ar
  27   16   19 1
  28   17   18 ar
  29   17   30 1
  30   18   31 1
  31   19   20 1
  32   19   21 1
  33   19   32 1
  34   20   33 1
  35   20   34 1
  36   20   35 1
  37   21   36 1
  38   21   37 1
  39   21   38 1
  40   22   39 1
  41   22   40 1

#	End of record

