#	Name: ASD01882920
#	Creating user name:	WinNT
#	Creation time:	15. 06. 2019 19:45

#	Modifying user name:	WinNT
#	Modification time:	15. 06. 2019 19:45

#	Program:	/corina/corina34_cracker 3.40 0067  02.08.2006

@<TRIPOS>MOLECULE
ASD01882920
  54   58    0    0    0
SMALL
NO_CHARGES


@<TRIPOS>ATOM
   1 C1             0.0164     1.3725    -0.0259 C.2     
   2 C2            -0.0669    -0.0128    -0.2482 C.2     
   3 C3             1.0539    -0.7615    -0.3163 C.2     
   4 C4             2.3946     1.1661     0.0467 C.2     
   5 C5             1.2342     1.9604     0.1207 C.2     
   6 C6             1.3403     3.4447     0.3591 C.3     
   7 N7             4.3603     0.3438     0.0058 N.2     
   8 N8             3.6870     1.4315     0.1451 N.2     
   9 N9             2.2814    -0.1852    -0.1706 N.pl3   
  10 C10            3.5536    -0.6672    -0.1895 C.2     
  11 C11            3.9593    -2.1036    -0.3974 C.3     
  12 C12            4.0323    -2.8139     0.9557 C.3     
  13 C13            4.3154    -4.3175     0.9499 C.3     
  14 C14            5.3976    -3.3370     1.4063 C.3     
  15 F15            0.5923     3.7900     1.4898 F       
  16 F16            2.6807     3.7895     0.5635 F       
  17 F17            0.8465     4.1324    -0.7546 F       
  18 C18           -1.2383     2.2042     0.0435 C.3     
  19 N19           -1.6403     2.5982    -1.3134 N.3     
  20 C20           -2.9789     3.2047    -1.3109 C.3     
  21 C21           -3.3268     3.6724    -2.7261 C.3     
  22 N22           -3.2726     2.5267    -3.6449 N.3     
  23 C23           -1.9340     1.9202    -3.6475 C.3     
  24 C24           -1.5861     1.4526    -2.2323 C.3     
  25 C25           -3.6552     2.9017    -4.9364 C.ar    
  26 C26           -4.9666     3.2869    -5.1901 C.ar    
  27 C27           -5.3415     3.6568    -6.4675 C.ar    
  28 C28           -4.4125     3.6440    -7.4934 C.ar    
  29 C29           -3.1070     3.2606    -7.2434 C.ar    
  30 C30           -2.7248     2.8956    -5.9668 C.ar    
  31 Cl31          -6.1321     3.3025    -3.9035 Cl      
  32 Cl32          -4.8867     4.1093    -9.0973 Cl      
  33 H33           -1.0332    -0.4808    -0.3648 H       
  34 H34            0.9782    -1.8252    -0.4872 H       
  35 H35            3.2239    -2.6010    -1.0297 H       
  36 H36            4.9363    -2.1390    -0.8795 H       
  37 H37            3.3609    -2.4312     1.7244 H       
  38 H38            3.8306    -4.9239     1.7150 H       
  39 H39            4.4497    -4.8006    -0.0179 H       
  40 H40            6.2440    -3.1751     0.7388 H       
  41 H41            5.6248    -3.2984     2.4717 H       
  42 H42           -2.0359     1.6210     0.5037 H       
  43 H43           -1.0501     3.0968     0.6402 H       
  44 H44           -3.7114     2.4680    -0.9810 H       
  45 H45           -2.9902     4.0581    -0.6329 H       
  46 H46           -4.3309     4.0964    -2.7324 H       
  47 H47           -2.6102     4.4290    -3.0456 H       
  48 H48           -1.9228     1.0668    -4.3255 H       
  49 H49           -1.2016     2.6569    -3.9774 H       
  50 H50           -0.5820     1.0286    -2.2259 H       
  51 H51           -2.3028     0.6960    -1.9128 H       
  52 H52           -6.3602     3.9559    -6.6656 H       
  53 H53           -2.3846     3.2509    -8.0461 H       
  54 H54           -1.7043     2.6010    -5.7716 H       
@<TRIPOS>BOND
   1    1    2 1
   2    1    5 2
   3    1   18 1
   4    2    3 2
   5    2   33 1
   6    3    9 1
   7    3   34 1
   8    4    5 1
   9    4    9 1
  10    4    8 2
  11    5    6 1
  12    6   15 1
  13    6   16 1
  14    6   17 1
  15    7    8 1
  16    7   10 2
  17    9   10 1
  18   10   11 1
  19   11   12 1
  20   11   35 1
  21   11   36 1
  22   12   13 1
  23   12   14 1
  24   12   37 1
  25   13   14 1
  26   13   38 1
  27   13   39 1
  28   14   40 1
  29   14   41 1
  30   18   19 1
  31   18   42 1
  32   18   43 1
  33   19   20 1
  34   19   24 1
  35   20   21 1
  36   20   44 1
  37   20   45 1
  38   21   22 1
  39   21   46 1
  40   21   47 1
  41   22   23 1
  42   22   25 1
  43   23   24 1
  44   23   48 1
  45   23   49 1
  46   24   50 1
  47   24   51 1
  48   25   26 ar
  49   25   30 ar
  50   26   27 ar
  51   26   31 1
  52   27   28 ar
  53   27   52 1
  54   28   29 ar
  55   28   32 1
  56   29   30 ar
  57   29   53 1
  58   30   54 1

#	End of record

