#	Name: ASD06710052
#	Creating user name:	WinNT
#	Creation time:	15. 06. 2019 21:08

#	Modifying user name:	WinNT
#	Modification time:	15. 06. 2019 21:08

#	Program:	/corina/corina34_cracker 3.40 0067  02.08.2006

@<TRIPOS>MOLECULE
ASD06710052
  42   44    0    0    0
SMALL
NO_CHARGES


@<TRIPOS>ATOM
   1 C1             2.4572    -0.0172     0.1486 C.ar    
   2 C2             1.7388    -0.9454    -0.5792 C.ar    
   3 C3             1.1532    -0.5887    -1.7835 C.ar    
   4 C4             1.2848     0.7031    -2.2650 C.ar    
   5 C5             2.5944     1.2898    -0.3315 C.ar    
   6 C6             3.2872     2.4657     0.2146 C.2     
   7 C7             1.9976     1.6354    -1.5482 C.ar    
   8 C8             2.3217     3.0899    -1.7883 C.3     
   9 C9             3.1502     3.5213    -0.6007 C.2     
  10 C10            3.7075     4.8630    -0.3779 C.2     
  11 N11            2.8529     5.9541    -0.2021 N.pl3   
  12 C12            5.0345     5.0396    -0.3433 C.2     
  13 C13            1.4024     5.7506    -0.1695 C.3     
  14 C14            3.4071     7.3017    -0.0505 C.3     
  15 C15            3.6666     7.8942    -1.4116 C.2     
  16 C16            3.4739     9.0245    -3.3078 C.2     
  17 C17            2.8380     8.7132    -2.0840 C.2     
  18 O18            4.7668     7.6987    -2.1565 O.3     
  19 C19            4.6546     8.3801    -3.3084 C.2     
  20 C20            0.8566     6.1880     1.1913 C.3     
  21 C21            0.7458     6.5817    -1.2735 C.3     
  22 F22            1.6067    -2.2072    -0.1151 F       
  23 H23            2.9084    -0.2985     1.0887 H       
  24 H24            0.5933    -1.3198    -2.3479 H       
  25 H25            0.8278     0.9784    -3.2040 H       
  26 H26            3.8325     2.4779     1.1468 H       
  27 H27            2.8959     3.2014    -2.7081 H       
  28 H28            1.4046     3.6766    -1.8422 H       
  29 H29            5.4440     6.0254    -0.1795 H       
  30 H30            5.6952     4.1961    -0.4791 H       
  31 H31            1.1799     4.6954    -0.3280 H       
  32 H32            2.6967     7.9281     0.4890 H       
  33 H33            4.3421     7.2494     0.5073 H       
  34 H34            3.0871     9.6601    -4.0907 H       
  35 H35            1.8721     9.0650    -1.7529 H       
  36 H36            5.3878     8.4058    -4.1011 H       
  37 H37            1.0791     7.2432     1.3498 H       
  38 H38           -0.2226     6.0366     1.2156 H       
  39 H39            1.3243     5.5959     1.9778 H       
  40 H40            1.1374     6.2726    -2.2426 H       
  41 H41           -0.3330     6.4275    -1.2515 H       
  42 H42            0.9653     7.6373    -1.1129 H       
@<TRIPOS>BOND
   1    1    2 ar
   2    1    5 ar
   3    1   23 1
   4    2    3 ar
   5    2   22 1
   6    3    4 ar
   7    3   24 1
   8    4    7 ar
   9    4   25 1
  10    5    7 ar
  11    5    6 1
  12    6    9 2
  13    6   26 1
  14    7    8 1
  15    8    9 1
  16    8   27 1
  17    8   28 1
  18    9   10 1
  19   10   11 1
  20   10   12 2
  21   11   13 1
  22   11   14 1
  23   12   29 1
  24   12   30 1
  25   13   20 1
  26   13   21 1
  27   13   31 1
  28   14   15 1
  29   14   32 1
  30   14   33 1
  31   15   18 1
  32   15   17 2
  33   16   17 1
  34   16   19 2
  35   16   34 1
  36   17   35 1
  37   18   19 1
  38   19   36 1
  39   20   37 1
  40   20   38 1
  41   20   39 1
  42   21   40 1
  43   21   41 1
  44   21   42 1

#	End of record

