#	Name: ASD01720188
#	Creating user name:	WinNT
#	Creation time:	15. 06. 2019 19:23

#	Modifying user name:	WinNT
#	Modification time:	15. 06. 2019 19:23

#	Program:	/corina/corina34_cracker 3.40 0067  02.08.2006

@<TRIPOS>MOLECULE
ASD01720188
  60   63    0    0    0
SMALL
NO_CHARGES


@<TRIPOS>ATOM
   1 C1            -0.1076     0.9710     0.3086 C.ar    
   2 N2            -0.0568    -0.3471     0.3170 N.ar    
   3 C3             1.0875    -1.0031     0.2845 C.ar    
   4 C4             2.2897    -0.3279     0.2401 C.ar    
   5 C5             2.2824     1.0699     0.2297 C.ar    
   6 C6             1.0480     1.7240     0.2651 C.ar    
   7 C7             3.5509     1.8382     0.1828 C.ar    
   8 C8             3.5347     3.2355     0.1727 C.ar    
   9 C9             4.7453     3.9059     0.1284 C.ar    
  10 C10            5.9206     3.1782     0.0959 C.ar    
  11 N11            5.9043     1.8591     0.1060 N.ar    
  12 C12            4.7778     1.1782     0.1540 C.ar    
  13 C13            7.2408     3.9033     0.0477 C.3     
  14 C14            7.8221     3.8108    -1.3646 C.3     
  15 N15            8.1701     3.2896     0.9995 N.pl3   
  16 C16            9.2141     4.0316     1.5238 C.ar    
  17 N17           10.0445     3.4605     2.3829 N.ar    
  18 C18           11.0564     4.1460     2.9040 C.ar    
  19 C19           11.2334     5.4793     2.5334 C.ar    
  20 C20           10.3445     6.0373     1.6340 C.ar    
  21 N21            9.3610     5.2942     1.1496 N.ar    
  22 N22           11.9259     3.5435     3.8060 N.am    
  23 C23           12.9664     4.1407     4.4030 C.2     
  24 O24           13.6477     3.3404     5.2304 O.3     
  25 O25           13.2637     5.3028     4.2104 O.2     
  26 C26           13.0385     2.0170     5.2375 C.3     
  27 C27           11.8501     2.1482     4.2654 C.3     
  28 C28           12.0146     1.1911     3.0831 C.3     
  29 C29           13.3350     1.4855     2.3685 C.3     
  30 C30           12.0208    -0.2518     3.5921 C.3     
  31 C31            4.7816     5.4124     0.1153 C.3     
  32 C32            1.0812    -2.5100     0.2967 C.3     
  33 F33           -0.2378    -2.9714     0.2288 F       
  34 F34            1.7999    -2.9883    -0.8042 F       
  35 F35            1.6757    -2.9693     1.4769 F       
  36 H36           -1.0665     1.4674     0.3316 H       
  37 H37            3.2227    -0.8712     0.2140 H       
  38 H38            0.9991     2.8029     0.2582 H       
  39 H39            2.6016     3.7787     0.1984 H       
  40 H40            4.8050     0.0986     0.1611 H       
  41 H41            7.0901     4.9503     0.3107 H       
  42 H42            7.1307     4.2675    -2.0727 H       
  43 H43            8.7770     4.3353    -1.3995 H       
  44 H44            7.9728     2.7638    -1.6276 H       
  45 H45            8.0538     2.3631     1.2622 H       
  46 H46           12.0464     6.0623     2.9402 H       
  47 H47           10.4531     7.0669     1.3266 H       
  48 H48           13.7466     1.2684     4.8819 H       
  49 H49           12.6841     1.7648     6.2370 H       
  50 H50           10.9094     1.9606     4.7832 H       
  51 H51           11.1867     1.3274     2.3874 H       
  52 H52           13.4522     0.8036     1.5263 H       
  53 H53           13.3306     2.5134     2.0060 H       
  54 H54           14.1630     1.3492     3.0643 H       
  55 H55           11.1237    -0.4320     4.1843 H       
  56 H56           12.0399    -0.9361     2.7439 H       
  57 H57           12.9034    -0.4151     4.2106 H       
  58 H58            4.8234     5.7838     1.1392 H       
  59 H59            5.6631     5.7498    -0.4299 H       
  60 H60            3.8846     5.7932    -0.3730 H       
@<TRIPOS>BOND
   1    1    2 ar
   2    1    6 ar
   3    1   36 1
   4    2    3 ar
   5    3   32 1
   6    3    4 ar
   7    4    5 ar
   8    4   37 1
   9    5    6 ar
  10    5    7 1
  11    6   38 1
  12    7    8 ar
  13    7   12 ar
  14    8    9 ar
  15    8   39 1
  16    9   10 ar
  17    9   31 1
  18   10   11 ar
  19   10   13 1
  20   11   12 ar
  21   12   40 1
  22   13   14 1
  23   13   15 1
  24   13   41 1
  25   14   42 1
  26   14   43 1
  27   14   44 1
  28   15   16 1
  29   15   45 1
  30   16   17 ar
  31   16   21 ar
  32   17   18 ar
  33   18   19 ar
  34   18   22 1
  35   19   20 ar
  36   19   46 1
  37   20   21 ar
  38   20   47 1
  39   22   23 am
  40   22   27 1
  41   23   24 1
  42   23   25 2
  43   24   26 1
  44   26   27 1
  45   26   48 1
  46   26   49 1
  47   27   28 1
  48   27   50 1
  49   28   29 1
  50   28   30 1
  51   28   51 1
  52   29   52 1
  53   29   53 1
  54   29   54 1
  55   30   55 1
  56   30   56 1
  57   30   57 1
  58   31   58 1
  59   31   59 1
  60   31   60 1
  61   32   33 1
  62   32   34 1
  63   32   35 1

#	End of record

