#	Name: ASD05590004
#	Creating user name:	WinNT
#	Creation time:	15. 06. 2019 21:01

#	Modifying user name:	WinNT
#	Modification time:	15. 06. 2019 21:01

#	Program:	/corina/corina34_cracker 3.40 0067  02.08.2006

@<TRIPOS>MOLECULE
ASD05590004
  31   31    0    0    0
SMALL
NO_CHARGES


@<TRIPOS>ATOM
   1 C1             1.2675    -1.4892    -0.8994 C.3     
   2 C2             0.2735    -0.5347    -0.2895 C.2     
   3 O3             2.5411    -0.8493    -1.0020 O.3     
   4 C4            -1.1802    -0.9201    -0.1939 C.3     
   5 O5             0.6419     0.5389     0.1227 O.2     
   6 C6            -1.8900    -0.5611    -1.5010 C.3     
   7 O7            -1.2861    -2.3267     0.0349 O.3     
   8 C8            -3.3290    -1.0792    -1.4589 C.3     
   9 C9            -4.0280    -0.7256    -2.7462 C.2     
  10 C10           -4.6484    -1.5890    -3.5729 C.2     
  11 N11           -5.1443    -0.8528    -4.6148 N.pl3   
  12 C12           -4.8096     0.4358    -4.3885 C.2     
  13 N13           -4.1465     0.5049    -3.2666 N.2     
  14 C14           -1.9001     0.9589    -1.6750 C.3     
  15 C15           -1.1506    -1.2041    -2.6760 C.3     
  16 H16            1.3553    -2.3742    -0.2691 H       
  17 H17            0.9273    -1.7826    -1.8925 H       
  18 H18            3.2314    -1.4065    -1.3870 H       
  19 H19           -1.6453    -0.3816     0.6318 H       
  20 H20           -0.8923    -2.8692    -0.6620 H       
  21 H21           -3.3218    -2.1621    -1.3349 H       
  22 H22           -3.8557    -0.6211    -0.6217 H       
  23 H23           -4.7371    -2.6571    -3.4396 H       
  24 H24           -5.6431    -1.1931    -5.3740 H       
  25 H25           -5.0538     1.2712    -5.0278 H       
  26 H26           -0.8855     1.3434    -1.5704 H       
  27 H27           -2.2830     1.2088    -2.6645 H       
  28 H28           -2.5389     1.4075    -0.9143 H       
  29 H29           -1.0251    -2.2702    -2.4868 H       
  30 H30           -1.7279    -1.0628    -3.5897 H       
  31 H31           -0.1720    -0.7375    -2.7887 H       
@<TRIPOS>BOND
   1    1    2 1
   2    1    3 1
   3    1   16 1
   4    1   17 1
   5    2    4 1
   6    2    5 2
   7    3   18 1
   8    4    6 1
   9    4    7 1
  10    4   19 1
  11    6    8 1
  12    6   14 1
  13    6   15 1
  14    7   20 1
  15    8    9 1
  16    8   21 1
  17    8   22 1
  18    9   10 2
  19    9   13 1
  20   10   11 1
  21   10   23 1
  22   11   12 1
  23   11   24 1
  24   12   13 2
  25   12   25 1
  26   14   26 1
  27   14   27 1
  28   14   28 1
  29   15   29 1
  30   15   30 1
  31   15   31 1

#	End of record

