#	Name: ASD03330998
#	Creating user name:	WinNT
#	Creation time:	15. 06. 2019 20:38

#	Modifying user name:	WinNT
#	Modification time:	15. 06. 2019 20:38

#	Program:	/corina/corina34_cracker 3.40 0067  02.08.2006

@<TRIPOS>MOLECULE
ASD03330998
  63   65    0    0    0
SMALL
NO_CHARGES


@<TRIPOS>ATOM
   1 N1             0.0601     1.1544    -0.7659 N.pl3   
   2 C2             0.0646    -0.1788    -0.4989 C.2     
   3 C3             1.2858    -1.0115    -0.2083 C.3     
   4 N4             2.1198    -0.3147     0.7835 N.3     
   5 C5             3.0714     0.5893     0.1348 C.3     
   6 C6             2.4736     1.1928    -1.1330 C.3     
   7 C7             1.2387     2.0255    -0.7785 C.3     
   8 C8            -1.2331     1.5191    -1.0037 C.2     
   9 N9            -1.9979     0.4607    -0.8715 N.2     
  10 C10           -1.2277    -0.6039    -0.5571 C.2     
  11 C11           -1.7014    -1.9789    -0.3198 C.2     
  12 O12           -0.9064    -2.8565    -0.0422 O.2     
  13 N13           -3.0155    -2.2640    -0.4103 N.am    
  14 C14            2.8138    -1.2730     1.6541 C.3     
  15 C15           -4.7917    -3.8443    -0.8967 C.2     
  16 C16           -3.4865    -3.6310    -0.1743 C.3     
  17 C17           -3.6927    -3.8475     1.3262 C.3     
  18 C18           -4.7889    -2.9073     1.8313 C.3     
  19 O19           -5.4265    -2.8913    -1.2963 O.2     
  20 C20           -4.1081    -5.2980     1.5798 C.3     
  21 C21           -2.3872    -3.5537     2.0680 C.3     
  22 N22           -5.2537    -5.0942    -1.0986 N.am    
  23 C23           -6.5604    -5.2994    -1.7286 C.3     
  24 C24           -6.8434    -6.7989    -1.8393 C.3     
  25 C25           -1.6958     2.8801    -1.3518 C.ar    
  26 C26           -2.5961     3.0674    -2.4040 C.ar    
  27 C27           -3.0246     4.3418    -2.7242 C.ar    
  28 C28           -2.5642     5.4301    -2.0059 C.ar    
  29 C29           -1.6714     5.2510    -0.9616 C.ar    
  30 C30           -1.2397     3.9814    -0.6276 C.ar    
  31 F31           -1.2263     6.3194    -0.2647 F       
  32 F32           -3.0464     2.0051    -3.1069 F       
  33 H33            0.9806    -1.9799     0.1882 H       
  34 H34            1.8554    -1.1557    -1.1264 H       
  35 H35            3.3308     1.3917     0.8254 H       
  36 H36            3.9734     0.0346    -0.1234 H       
  37 H37            3.2146     1.8305    -1.6150 H       
  38 H38            2.1873     0.3923    -1.8152 H       
  39 H39            1.1033     2.8112    -1.5218 H       
  40 H40            1.3715     2.4731     0.2065 H       
  41 H41           -3.6495    -1.5640    -0.6316 H       
  42 H42            3.3988    -1.9609     1.0437 H       
  43 H43            3.4766    -0.7346     2.3315 H       
  44 H44            2.0808    -1.8347     2.2333 H       
  45 H45           -2.7459    -4.3395    -0.5453 H       
  46 H46           -5.7190    -3.1166     1.3028 H       
  47 H47           -4.9358    -3.0616     2.9002 H       
  48 H48           -4.4930    -1.8739     1.6506 H       
  49 H49           -3.3172    -5.9671     1.2408 H       
  50 H50           -4.2771    -5.4464     2.6464 H       
  51 H51           -5.0259    -5.5140     1.0330 H       
  52 H52           -2.0912    -2.5204     1.8873 H       
  53 H53           -2.5341    -3.7080     3.1370 H       
  54 H54           -1.6062    -4.2236     1.7082 H       
  55 H55           -4.7211    -5.8580    -0.8268 H       
  56 H56           -7.3339    -4.8274    -1.1228 H       
  57 H57           -6.5574    -4.8557    -2.7242 H       
  58 H58           -6.8464    -7.2425    -0.8437 H       
  59 H59           -7.8155    -6.9515    -2.3080 H       
  60 H60           -6.0698    -7.2709    -2.4450 H       
  61 H61           -3.7201     4.4880    -3.5374 H       
  62 H62           -2.9017     6.4239    -2.2603 H       
  63 H63           -0.5473     3.8428     0.1895 H       
@<TRIPOS>BOND
   1    1    2 1
   2    1    7 1
   3    1    8 1
   4    2    3 1
   5    2   10 2
   6    3    4 1
   7    3   33 1
   8    3   34 1
   9    4    5 1
  10    4   14 1
  11    5    6 1
  12    5   35 1
  13    5   36 1
  14    6    7 1
  15    6   37 1
  16    6   38 1
  17    7   39 1
  18    7   40 1
  19    8    9 2
  20    8   25 1
  21    9   10 1
  22   10   11 1
  23   11   12 2
  24   11   13 am
  25   13   16 1
  26   13   41 1
  27   14   42 1
  28   14   43 1
  29   14   44 1
  30   15   19 2
  31   15   22 am
  32   15   16 1
  33   16   17 1
  34   16   45 1
  35   17   18 1
  36   17   20 1
  37   17   21 1
  38   18   46 1
  39   18   47 1
  40   18   48 1
  41   20   49 1
  42   20   50 1
  43   20   51 1
  44   21   52 1
  45   21   53 1
  46   21   54 1
  47   22   23 1
  48   22   55 1
  49   23   24 1
  50   23   56 1
  51   23   57 1
  52   24   58 1
  53   24   59 1
  54   24   60 1
  55   25   26 ar
  56   25   30 ar
  57   26   27 ar
  58   26   32 1
  59   27   28 ar
  60   27   61 1
  61   28   29 ar
  62   28   62 1
  63   29   30 ar
  64   29   31 1
  65   30   63 1

#	End of record

