#	Name: ASD08070292
#	Creating user name:	WinNT
#	Creation time:	15. 06. 2019 21:14

#	Modifying user name:	WinNT
#	Modification time:	15. 06. 2019 21:14

#	Program:	/corina/corina34_cracker 3.40 0067  02.08.2006

@<TRIPOS>MOLECULE
ASD08070292
  45   46    0    0    0
SMALL
NO_CHARGES


@<TRIPOS>ATOM
   1 C1            -0.0182     1.4903     0.0102 C.2     
   2 C2             0.0021    -0.0041     0.0020 C.2     
   3 O3             1.0244     2.1113     0.0036 O.2     
   4 N4            -1.1944     2.1482     0.0194 N.am    
   5 O5            -1.0405    -0.6251     0.0086 O.2     
   6 N6             1.1783    -0.6620    -0.0127 N.am    
   7 C7             1.1981    -2.1268    -0.0208 C.3     
   8 C8             2.6473    -2.6171    -0.0373 C.3     
   9 C9             2.6678    -4.1240    -0.0456 C.ar    
  10 C10            3.3568    -4.7924    -1.0401 C.ar    
  11 C11            3.3697    -6.1786    -1.0384 C.ar    
  12 C12            2.6860    -6.8437    -0.0318 C.ar    
  13 C13            2.0194    -6.1080     0.9292 C.ar    
  14 N14            2.0327    -4.7895     0.8991 N.ar    
  15 C15           -1.2143     3.6131     0.0274 C.3     
  16 C16           -2.6418     4.0960     0.0368 C.ar    
  17 C17           -3.2899     4.3107     1.2394 C.ar    
  18 C18           -4.5984     4.7529     1.2507 C.ar    
  19 C19           -5.2624     4.9822     0.0541 C.ar    
  20 C20           -4.6098     4.7665    -1.1508 C.ar    
  21 C21           -3.2993     4.3291    -1.1567 C.ar    
  22 C22           -5.3045     4.9858     2.5615 C.3     
  23 O23           -6.5499     5.4169     0.0625 O.3     
  24 C24           -7.1705     5.6318    -1.2066 C.3     
  25 H25           -2.0278     1.6519     0.0206 H       
  26 H26            2.0116    -0.1656    -0.0180 H       
  27 H27            0.6978    -2.5019     0.8720 H       
  28 H28            0.6808    -2.4923    -0.9079 H       
  29 H29            3.1477    -2.2421    -0.9301 H       
  30 H30            3.1647    -2.2516     0.8498 H       
  31 H31            3.8782    -4.2416    -1.8091 H       
  32 H32            3.8993    -6.7275    -1.8030 H       
  33 H33            2.6745    -7.9232     0.0004 H       
  34 H34            1.4846    -6.6184     1.7165 H       
  35 H35           -0.7012     3.9785     0.9170 H       
  36 H36           -0.7097     3.9882    -0.8629 H       
  37 H37           -2.7727     4.1322     2.1705 H       
  38 H38           -5.1246     4.9439    -2.0835 H       
  39 H39           -2.7895     4.1649    -2.0945 H       
  40 H40           -5.1456     6.0155     2.8819 H       
  41 H41           -6.3720     4.8048     2.4364 H       
  42 H42           -4.9064     4.3055     3.3145 H       
  43 H43           -6.6109     6.3845    -1.7619 H       
  44 H44           -7.1803     4.6981    -1.7690 H       
  45 H45           -8.1936     5.9766    -1.0571 H       
@<TRIPOS>BOND
   1    1    2 1
   2    1    3 2
   3    1    4 am
   4    2    5 2
   5    2    6 am
   6    4   15 1
   7    4   25 1
   8    6    7 1
   9    6   26 1
  10    7    8 1
  11    7   27 1
  12    7   28 1
  13    8    9 1
  14    8   29 1
  15    8   30 1
  16    9   10 ar
  17    9   14 ar
  18   10   11 ar
  19   10   31 1
  20   11   12 ar
  21   11   32 1
  22   12   13 ar
  23   12   33 1
  24   13   14 ar
  25   13   34 1
  26   15   16 1
  27   15   35 1
  28   15   36 1
  29   16   17 ar
  30   16   21 ar
  31   17   18 ar
  32   17   37 1
  33   18   19 ar
  34   18   22 1
  35   19   20 ar
  36   19   23 1
  37   20   21 ar
  38   20   38 1
  39   21   39 1
  40   22   40 1
  41   22   41 1
  42   22   42 1
  43   23   24 1
  44   24   43 1
  45   24   44 1
  46   24   45 1

#	End of record

