#	Name: ASD01410130
#	Creating user name:	WinNT
#	Creation time:	15. 06. 2019 19:16

#	Modifying user name:	WinNT
#	Modification time:	15. 06. 2019 19:16

#	Program:	/corina/corina34_cracker 3.40 0067  02.08.2006

@<TRIPOS>MOLECULE
ASD01410130
  78   83    0    0    0
SMALL
NO_CHARGES


@<TRIPOS>ATOM
   1 C1             0.1682     1.6794    -2.9086 C.ar    
   2 C2             0.5137     0.3331    -2.6858 C.ar    
   3 C3            -0.3242    -0.4885    -1.9407 C.ar    
   4 C4            -1.4859     0.0059    -1.4220 C.ar    
   5 C5            -1.8461     1.3432    -1.6340 C.ar    
   6 C6            -1.0174     2.1824    -2.3725 C.ar    
   7 N7             1.1584     2.2290    -3.6560 N.2     
   8 C8             2.0747     1.3245    -3.9034 C.2     
   9 N9             1.7206     0.1352    -3.3240 N.pl3   
  10 C10           -3.1062     1.8650    -1.0680 C.2     
  11 N11           -3.9081     1.0550    -0.3486 N.am    
  12 C12           -5.1583     1.5727     0.2130 C.3     
  13 C13            3.3044     1.5538    -4.6897 C.2     
  14 C14            4.0707     0.5568    -5.4491 C.2     
  15 C15            5.1009     1.2210    -5.9971 C.2     
  16 O16            5.0280     2.5131    -5.6425 O.3     
  17 C17            3.9597     2.7342    -4.8660 C.2     
  18 C18            2.4823    -1.1153    -3.3728 C.3     
  19 C19            2.7998    -1.5751    -1.9484 C.3     
  20 C20            3.5952    -2.8810    -1.9994 C.3     
  21 C21            2.7680    -3.9546    -2.7094 C.3     
  22 C22            2.4505    -3.4949    -4.1338 C.3     
  23 C23            1.6551    -2.1889    -4.0828 C.3     
  24 O24           -3.4204     3.0251    -1.2509 O.2     
  25 C25           -6.1424     0.4189     0.4160 C.3     
  26 C26           -4.8782     2.2331     1.5383 C.2     
  27 O27           -3.8713     1.9540     2.1541 O.2     
  28 N28           -5.7466     3.1338     2.0393 N.am    
  29 C29           -6.5368    -0.1466    -0.9241 C.ar    
  30 C30           -5.8020    -1.1766    -1.4818 C.ar    
  31 C31           -6.1614    -1.6967    -2.7100 C.ar    
  32 C32           -7.2607    -1.1848    -3.3840 C.ar    
  33 C33           -7.9963    -0.1513    -2.8223 C.ar    
  34 C34           -7.6361     0.3615    -1.5911 C.ar    
  35 O35           -7.6160    -1.6945    -4.5926 O.3     
  36 C36           -5.4399     3.8726     3.2735 C.3     
  37 C37           -5.6423     5.3683     3.0085 C.3     
  38 N38           -6.9917     5.5890     2.4715 N.3     
  39 C39           -7.1662     4.9181     1.1764 C.3     
  40 C40           -7.0235     3.4084     1.3629 C.3     
  41 C41           -7.2879     7.0239     2.3652 C.3     
  42 H42           -0.0555    -1.5208    -1.7720 H       
  43 H43           -2.1322    -0.6384    -0.8444 H       
  44 H44           -1.2939     3.2135    -2.5362 H       
  45 H45           -3.6574     0.1294    -0.2026 H       
  46 H46           -5.5899     2.3021    -0.4724 H       
  47 H47            3.8504    -0.4960    -5.5466 H       
  48 H48            5.8657     0.7851    -6.6228 H       
  49 H49            3.6708     3.6860    -4.4453 H       
  50 H50            3.4121    -0.9534    -3.9181 H       
  51 H51            3.3891    -0.8102    -1.4427 H       
  52 H52            1.8699    -1.7370    -1.4032 H       
  53 H53            4.5250    -2.7191    -2.5447 H       
  54 H54            3.8214    -3.2085    -0.9847 H       
  55 H55            3.3347    -4.8850    -2.7458 H       
  56 H56            1.8382    -4.1166    -2.1642 H       
  57 H57            3.3804    -3.3329    -4.6790 H       
  58 H58            1.8612    -4.2597    -4.6396 H       
  59 H59            0.7253    -2.3509    -3.5375 H       
  60 H60            1.4289    -1.8614    -5.0975 H       
  61 H61           -5.6704    -0.3603     1.0145 H       
  62 H62           -7.0303     0.7851     0.9313 H       
  63 H63           -4.9461    -1.5745    -0.9569 H       
  64 H64           -5.5870    -2.5010    -3.1454 H       
  65 H65           -8.8525     0.2489    -3.3449 H       
  66 H66           -8.2084     1.1660    -1.1534 H       
  67 H67           -8.2398    -2.4316    -4.5407 H       
  68 H68           -6.1090     3.5481     4.0704 H       
  69 H69           -4.4052     3.6888     3.5628 H       
  70 H70           -5.5267     5.9217     3.9404 H       
  71 H71           -4.9025     5.7131     2.2861 H       
  72 H72           -8.1557     5.1450     0.7796 H       
  73 H73           -6.4051     5.2692     0.4795 H       
  74 H74           -7.0378     2.9163     0.3904 H       
  75 H75           -7.8436     3.0362     1.9769 H       
  76 H76           -6.5653     7.4957     1.6993 H       
  77 H77           -8.2927     7.1588     1.9651 H       
  78 H78           -7.2253     7.4819     3.3523 H       
@<TRIPOS>BOND
   1    1    2 ar
   2    1    7 1
   3    1    6 ar
   4    2    3 ar
   5    2    9 1
   6    3    4 ar
   7    3   42 1
   8    4    5 ar
   9    4   43 1
  10    5    6 ar
  11    5   10 1
  12    6   44 1
  13    7    8 2
  14    8    9 1
  15    8   13 1
  16    9   18 1
  17   10   11 am
  18   10   24 2
  19   11   12 1
  20   11   45 1
  21   12   25 1
  22   12   26 1
  23   12   46 1
  24   13   14 1
  25   13   17 2
  26   14   15 2
  27   14   47 1
  28   15   16 1
  29   15   48 1
  30   16   17 1
  31   17   49 1
  32   18   19 1
  33   18   23 1
  34   18   50 1
  35   19   20 1
  36   19   51 1
  37   19   52 1
  38   20   21 1
  39   20   53 1
  40   20   54 1
  41   21   22 1
  42   21   55 1
  43   21   56 1
  44   22   23 1
  45   22   57 1
  46   22   58 1
  47   23   59 1
  48   23   60 1
  49   25   29 1
  50   25   61 1
  51   25   62 1
  52   26   27 2
  53   26   28 am
  54   28   36 1
  55   28   40 1
  56   29   30 ar
  57   29   34 ar
  58   30   31 ar
  59   30   63 1
  60   31   32 ar
  61   31   64 1
  62   32   33 ar
  63   32   35 1
  64   33   34 ar
  65   33   65 1
  66   34   66 1
  67   35   67 1
  68   36   37 1
  69   36   68 1
  70   36   69 1
  71   37   38 1
  72   37   70 1
  73   37   71 1
  74   38   39 1
  75   38   41 1
  76   39   40 1
  77   39   72 1
  78   39   73 1
  79   40   74 1
  80   40   75 1
  81   41   76 1
  82   41   77 1
  83   41   78 1

#	End of record

