#	Name: ASD01914679
#	Creating user name:	WinNT
#	Creation time:	15. 06. 2019 20:04

#	Modifying user name:	WinNT
#	Modification time:	15. 06. 2019 20:04

#	Program:	/corina/corina34_cracker 3.40 0067  02.08.2006

@<TRIPOS>MOLECULE
ASD01914679
  60   65    0    0    0
SMALL
NO_CHARGES


@<TRIPOS>ATOM
   1 C1            -0.0171     1.4076     0.0098 C.2     
   2 C2             0.0021    -0.0041     0.0020 C.2     
   3 C3             1.1955    -0.6539    -0.0129 C.2     
   4 C4             2.3915     0.0849    -0.0203 C.2     
   5 C5             2.3595     1.4329    -0.0123 C.2     
   6 N6             1.1674     2.1014     0.0022 N.pl3   
   7 N7            -1.0109     2.2798     0.0293 N.2     
   8 C8            -0.5014     3.5254     0.0288 C.2     
   9 C9             0.8608     3.4283     0.0127 C.2     
  10 C10           -1.2799     4.7792     0.0473 C.2     
  11 O11           -0.7061     5.8512     0.0444 O.2     
  12 N12           -2.6268     4.7359     0.0674 N.am    
  13 C13           -3.3995     5.9804     0.0857 C.3     
  14 C14           -4.8939     5.6526     0.1065 C.3     
  15 C15           -5.7008     6.9524     0.1257 C.3     
  16 C16           -5.3760     7.7728    -1.1242 C.3     
  17 C17           -3.8817     8.1006    -1.1450 C.3     
  18 C18           -3.5192     8.9076     0.1033 C.3     
  19 C19           -3.8440     8.0872     1.3532 C.3     
  20 C20           -3.0370     6.7874     1.3340 C.3     
  21 C21           -5.3383     7.7594     1.3740 C.3     
  22 C22           -3.0747     6.8009    -1.1641 C.3     
  23 N23           -7.1317     6.6385     0.1456 N.am    
  24 C24           -8.0398     7.6342     0.1647 C.2     
  25 C25           -9.4839     7.3175     0.1848 C.ar    
  26 C26          -10.4266     8.3464     0.2045 C.ar    
  27 C27          -11.7745     8.0432     0.2228 C.ar    
  28 C28          -12.1894     6.7209     0.2214 C.ar    
  29 C29          -11.2586     5.6982     0.2019 C.ar    
  30 C30           -9.9097     5.9885     0.1782 C.ar    
  31 O31           -7.6716     8.7927     0.1654 O.2     
  32 F32          -12.6893     9.0372     0.2424 F       
  33 C33            3.7161    -0.6335    -0.0368 C.3     
  34 H34           -0.9226    -0.5620     0.0082 H       
  35 H35            1.2250    -1.7335    -0.0186 H       
  36 H36            3.2849     1.9898    -0.0175 H       
  37 H37            1.5626     4.2491     0.0105 H       
  38 H38           -3.0846     3.8807     0.0697 H       
  39 H39           -5.1521     5.0777    -0.7828 H       
  40 H40           -5.1253     5.0681     0.9970 H       
  41 H41           -5.6343     7.1979    -2.0135 H       
  42 H42           -5.9509     8.6988    -1.1105 H       
  43 H43           -3.6503     8.6851    -2.0354 H       
  44 H44           -2.4546     9.1411     0.0885 H       
  45 H45           -4.0941     9.8336     0.1170 H       
  46 H46           -3.5857     8.6621     2.2425 H       
  47 H47           -3.2684     6.2029     2.2245 H       
  48 H48           -1.9724     7.0209     1.3192 H       
  49 H49           -5.9132     8.6853     1.3876 H       
  50 H50           -5.5697     7.1749     2.2644 H       
  51 H51           -2.0101     7.0344    -1.1789 H       
  52 H52           -3.3330     6.2259    -2.0534 H       
  53 H53           -7.4255     5.7141     0.1451 H       
  54 H54          -10.1034     9.3769     0.2059 H       
  55 H55          -13.2439     6.4880     0.2361 H       
  56 H56          -11.5882     4.6698     0.2013 H       
  57 H57           -9.1846     5.1884     0.1587 H       
  58 H58            3.5456    -1.7100    -0.0410 H       
  59 H59            4.2720    -0.3502    -0.9306 H       
  60 H60            4.2890    -0.3597     0.8492 H       
@<TRIPOS>BOND
   1    1    2 1
   2    1    6 1
   3    1    7 2
   4    2    3 2
   5    2   34 1
   6    3    4 1
   7    3   35 1
   8    4    5 2
   9    4   33 1
  10    5    6 1
  11    5   36 1
  12    6    9 1
  13    7    8 1
  14    8    9 2
  15    8   10 1
  16    9   37 1
  17   10   11 2
  18   10   12 am
  19   12   13 1
  20   12   38 1
  21   13   14 1
  22   13   20 1
  23   13   22 1
  24   14   15 1
  25   14   39 1
  26   14   40 1
  27   15   16 1
  28   15   21 1
  29   15   23 1
  30   16   17 1
  31   16   41 1
  32   16   42 1
  33   17   18 1
  34   17   22 1
  35   17   43 1
  36   18   19 1
  37   18   44 1
  38   18   45 1
  39   19   20 1
  40   19   21 1
  41   19   46 1
  42   20   47 1
  43   20   48 1
  44   21   49 1
  45   21   50 1
  46   22   51 1
  47   22   52 1
  48   23   24 am
  49   23   53 1
  50   24   25 1
  51   24   31 2
  52   25   26 ar
  53   25   30 ar
  54   26   27 ar
  55   26   54 1
  56   27   28 ar
  57   27   32 1
  58   28   29 ar
  59   28   55 1
  60   29   30 ar
  61   29   56 1
  62   30   57 1
  63   33   58 1
  64   33   59 1
  65   33   60 1

#	End of record

