#	Name: ASD01912221
#	Creating user name:	WinNT
#	Creation time:	15. 06. 2019 19:59

#	Modifying user name:	WinNT
#	Modification time:	15. 06. 2019 19:59

#	Program:	/corina/corina34_cracker 3.40 0067  02.08.2006

@<TRIPOS>MOLECULE
ASD01912221
  52   54    0    0    0
SMALL
NO_CHARGES


@<TRIPOS>ATOM
   1 N1            -0.0180     1.4641     0.0132 N.am    
   2 C2             0.0017    -0.0043     0.0142 C.3     
   3 C3             0.7731    -0.4887    -1.2200 C.3     
   4 C4             2.0867     0.2590    -1.2867 C.2     
   5 C5             2.0573     1.7708    -1.2355 C.3     
   6 C6             1.2537     2.1985    -0.0008 C.3     
   7 C7            -1.1897     2.1301     0.0193 C.2     
   8 S8            -1.2035     3.8367     0.1540 S.2     
   9 N9            -2.3504     1.4526    -0.0806 N.am    
  10 C10            3.2414    -0.3980    -1.3876 C.2     
  11 C11            4.4747     0.3271    -1.4495 C.1     
  12 C12            5.4858     0.9215    -1.5002 C.1     
  13 C13            6.7191     1.6466    -1.5620 C.ar    
  14 C14            7.9279     0.9524    -1.6679 C.ar    
  15 C15            9.1097     1.6677    -1.7265 C.ar    
  16 C16            9.0494     3.0543    -1.6777 C.ar    
  17 C17            7.8195     3.6780    -1.5726 C.ar    
  18 N18            6.7062     2.9759    -1.5238 N.ar    
  19 C19            7.7519     5.1826    -1.5195 C.3     
  20 C20           -3.6260     2.1631     0.0393 C.3     
  21 C21           -4.7167     1.3805    -0.6948 C.3     
  22 C22           -6.0488     2.1226    -0.5696 C.3     
  23 C23           -6.4224     2.2541     0.9083 C.3     
  24 C24           -5.3317     3.0367     1.6423 C.3     
  25 C25           -3.9996     2.2946     1.5171 C.3     
  26 H26            0.4955    -0.3625     0.9175 H       
  27 H27           -1.0196    -0.3835    -0.0212 H       
  28 H28            0.9637    -1.5587    -1.1371 H       
  29 H29            0.1905    -0.2878    -2.1191 H       
  30 H30            3.0746     2.1553    -1.1625 H       
  31 H31            1.5814     2.1593    -2.1358 H       
  32 H32            1.0567     3.2696    -0.0461 H       
  33 H33            1.8194     1.9668     0.9016 H       
  34 H34           -2.3413     0.4945    -0.2319 H       
  35 H35            3.2473    -1.4774    -1.4228 H       
  36 H36            7.9385    -0.1270    -1.7030 H       
  37 H37           10.0590     1.1593    -1.8081 H       
  38 H38            9.9553     3.6406    -1.7210 H       
  39 H39            7.6647     5.5783    -2.5313 H       
  40 H40            6.8840     5.4868    -0.9344 H       
  41 H41            8.6579     5.5708    -1.0542 H       
  42 H42           -3.5318     3.1556    -0.4014 H       
  43 H43           -4.4505     1.2868    -1.7476 H       
  44 H44           -4.8108     0.3880    -0.2541 H       
  45 H45           -5.9546     3.1151    -1.0103 H       
  46 H46           -6.8258     1.5651    -1.0926 H       
  47 H47           -7.3714     2.7828     0.9975 H       
  48 H48           -6.5165     1.2616     1.3489 H       
  49 H49           -5.2376     4.0292     1.2017 H       
  50 H50           -5.5979     3.1304     2.6952 H       
  51 H51           -4.0937     1.3021     1.9578 H       
  52 H52           -3.2225     2.8522     2.0401 H       
@<TRIPOS>BOND
   1    1    2 1
   2    1    6 1
   3    1    7 am
   4    2    3 1
   5    2   26 1
   6    2   27 1
   7    3    4 1
   8    3   28 1
   9    3   29 1
  10    4    5 1
  11    4   10 2
  12    5    6 1
  13    5   30 1
  14    5   31 1
  15    6   32 1
  16    6   33 1
  17    7    8 2
  18    7    9 am
  19    9   20 1
  20    9   34 1
  21   10   11 1
  22   10   35 1
  23   11   12 3
  24   12   13 1
  25   13   14 ar
  26   13   18 ar
  27   14   15 ar
  28   14   36 1
  29   15   16 ar
  30   15   37 1
  31   16   17 ar
  32   16   38 1
  33   17   18 ar
  34   17   19 1
  35   19   39 1
  36   19   40 1
  37   19   41 1
  38   20   21 1
  39   20   25 1
  40   20   42 1
  41   21   22 1
  42   21   43 1
  43   21   44 1
  44   22   23 1
  45   22   45 1
  46   22   46 1
  47   23   24 1
  48   23   47 1
  49   23   48 1
  50   24   25 1
  51   24   49 1
  52   24   50 1
  53   25   51 1
  54   25   52 1

#	End of record

