#	Name: ASD01152480
#	Creating user name:	WinNT
#	Creation time:	15. 06. 2019 19:05

#	Modifying user name:	WinNT
#	Modification time:	15. 06. 2019 19:05

#	Program:	/corina/corina34_cracker 3.40 0067  02.08.2006

@<TRIPOS>MOLECULE
ASD01152480
  53   55    0    0    0
SMALL
NO_CHARGES


@<TRIPOS>ATOM
   1 C1             0.1107     1.1569    -0.6965 C.2     
   2 N2             0.0184    -0.1438    -0.6179 N.2     
   3 N3            -1.1208    -0.7663    -0.1081 N.am    
   4 C4            -2.2618    -0.0996     0.1332 C.2     
   5 C5            -2.3931     1.3532    -0.2595 C.3     
   6 C6            -1.0091     1.9734    -0.2041 C.2     
   7 C7            -2.9569     1.4574    -1.6780 C.3     
   8 O8            -0.8367     3.0970     0.2214 O.2     
   9 C9            -1.0736    -2.1392     0.1619 C.ar    
  10 O10           -3.1905    -0.6665     0.6685 O.2     
  11 C11           -3.2001     2.9055    -2.0168 C.ar    
  12 C12           -0.0101    -2.6697     0.8787 C.ar    
  13 C13           -2.0943    -2.9704    -0.2825 C.ar    
  14 C14           -2.0494    -4.3253    -0.0164 C.ar    
  15 C15           -0.9885    -4.8585     0.6937 C.ar    
  16 C16            0.0336    -4.0301     1.1451 C.ar    
  17 C17           -2.2000     3.6544    -2.6077 C.ar    
  18 C18           -4.4256     3.4834    -1.7416 C.ar    
  19 C19           -4.6487     4.8116    -2.0523 C.ar    
  20 C20           -3.6462     5.5624    -2.6378 C.ar    
  21 C21           -2.4232     4.9830    -2.9184 C.ar    
  22 F22           -0.9475    -6.1838     0.9528 F       
  23 C23           -1.3305     5.8014    -3.5567 C.3     
  24 N24            1.1054    -4.5690     1.8677 N.am    
  25 C25            1.7698    -3.8055     2.7576 C.2     
  26 O26            1.5003    -2.6279     2.8670 O.2     
  27 C27            2.8477    -4.4147     3.6167 C.3     
  28 O28           -0.5374     6.4141    -2.5380 O.3     
  29 C29            0.5330     7.2173    -3.0392 C.3     
  30 O30            1.2204     1.7434    -1.2172 O.3     
  31 C31            2.2629     0.8753    -1.6663 C.3     
  32 H32           -3.0536     1.8662     0.4395 H       
  33 H33           -2.2432     1.0339    -2.3847 H       
  34 H34           -3.8963     0.9077    -1.7370 H       
  35 H35            0.7822    -2.0243     1.2282 H       
  36 H36           -2.9241    -2.5569    -0.8365 H       
  37 H37           -2.8440    -4.9694    -0.3629 H       
  38 H38           -1.2441     3.2019    -2.8264 H       
  39 H39           -5.2087     2.8970    -1.2842 H       
  40 H40           -5.6062     5.2628    -1.8380 H       
  41 H41           -3.8207     6.6001    -2.8809 H       
  42 H42           -0.7009     5.1539    -4.1670 H       
  43 H43           -1.7746     6.5735    -4.1850 H       
  44 H44            1.3695    -5.4918     1.7277 H       
  45 H45            2.9468    -5.4738     3.3786 H       
  46 H46            3.7941    -3.9091     3.4252 H       
  47 H47            2.5816    -4.3020     4.6677 H       
  48 H48            1.2012     6.5992    -3.6388 H       
  49 H49            0.1276     8.0187    -3.6567 H       
  50 H50            1.0868     7.6467    -2.2042 H       
  51 H51            1.8800     0.2238    -2.4518 H       
  52 H52            3.0878     1.4705    -2.0579 H       
  53 H53            2.6160     0.2696    -0.8317 H       
@<TRIPOS>BOND
   1    1    2 2
   2    1   30 1
   3    1    6 1
   4    2    3 1
   5    3    4 am
   6    3    9 1
   7    4    5 1
   8    4   10 2
   9    5    6 1
  10    5    7 1
  11    5   32 1
  12    6    8 2
  13    7   11 1
  14    7   33 1
  15    7   34 1
  16    9   12 ar
  17    9   13 ar
  18   11   17 ar
  19   11   18 ar
  20   12   16 ar
  21   12   35 1
  22   13   14 ar
  23   13   36 1
  24   14   15 ar
  25   14   37 1
  26   15   16 ar
  27   15   22 1
  28   16   24 1
  29   17   21 ar
  30   17   38 1
  31   18   19 ar
  32   18   39 1
  33   19   20 ar
  34   19   40 1
  35   20   21 ar
  36   20   41 1
  37   21   23 1
  38   23   28 1
  39   23   42 1
  40   23   43 1
  41   24   25 am
  42   24   44 1
  43   25   26 2
  44   25   27 1
  45   27   45 1
  46   27   46 1
  47   27   47 1
  48   28   29 1
  49   29   48 1
  50   29   49 1
  51   29   50 1
  52   30   31 1
  53   31   51 1
  54   31   52 1
  55   31   53 1

#	End of record

