#	Name: ASD01940024
#	Creating user name:	WinNT
#	Creation time:	15. 06. 2019 20:11

#	Modifying user name:	WinNT
#	Modification time:	15. 06. 2019 20:11

#	Program:	/corina/corina34_cracker 3.40 0067  02.08.2006

@<TRIPOS>MOLECULE
ASD01940024
  47   49    0    0    0
SMALL
NO_CHARGES


@<TRIPOS>ATOM
   1 C1            -0.1658     1.1876    -0.0604 C.ar    
   2 C2            -0.1624    -0.0646    -0.6612 C.ar    
   3 C3            -1.2721    -0.8803    -0.5624 C.ar    
   4 C4            -2.3903    -0.4494     0.1368 C.ar    
   5 C5            -2.3946     0.8016     0.7369 C.ar    
   6 C6            -1.2836     1.6162     0.6439 C.ar    
   7 N7             0.9587     2.0148    -0.1596 N.pl3   
   8 C8             0.8025     3.3860    -0.2536 C.2     
   9 C9             1.8008     4.3496    -0.2315 C.2     
  10 C10            1.3202     5.6549    -0.3478 C.2     
  11 N11            0.0345     5.7987    -0.4589 N.2     
  12 S12           -0.6696     4.2578    -0.4300 S.3     
  13 O13            2.1579     6.7242    -0.3444 O.3     
  14 C14            3.2304     4.0260    -0.0978 C.2     
  15 N15            3.8052     3.9457     1.1535 N.pl3   
  16 N16            3.9552     3.8148    -1.1647 N.2     
  17 C17            5.2282     3.6237     1.2866 C.3     
  18 C18            6.0557     4.9033     1.1497 C.3     
  19 C19            5.4829     2.9960     2.6585 C.3     
  20 O20            5.2161     3.9591     3.6799 O.3     
  21 O21           -3.4826    -1.2532     0.2336 O.3     
  22 C22           -3.3690    -2.4001     0.9538 C.ar    
  23 C23           -4.4134    -3.3147     0.9740 C.ar    
  24 C24           -4.2961    -4.4809     1.7073 C.ar    
  25 C25           -3.1402    -4.7371     2.4207 C.ar    
  26 C26           -2.0968    -3.8265     2.4029 C.ar    
  27 C27           -2.2072    -2.6613     1.6652 C.ar    
  28 Cl28          -5.8662    -2.9939     0.0794 Cl      
  29 F29           -0.9684    -4.0788     3.1018 F       
  30 H30            0.7078    -0.4001    -1.2059 H       
  31 H31           -1.2698    -1.8539    -1.0299 H       
  32 H32           -3.2656     1.1365     1.2807 H       
  33 H33           -1.2871     2.5899     1.1110 H       
  34 H34            1.8476     1.6265    -0.1626 H       
  35 H35            2.4708     6.9814    -1.2225 H       
  36 H36            3.2673     4.1025     1.9453 H       
  37 H37            4.8974     3.6016    -1.0765 H       
  38 H38            5.5159     2.9196     0.5059 H       
  39 H39            5.8742     5.3505     0.1723 H       
  40 H40            5.7679     5.6074     1.9304 H       
  41 H41            7.1144     4.6637     1.2487 H       
  42 H42            4.8281     2.1348     2.7912 H       
  43 H43            6.5226     2.6755     2.7240 H       
  44 H44            5.3569     3.6293     4.5779 H       
  45 H45           -5.1085    -5.1923     1.7229 H       
  46 H46           -3.0508    -5.6485     2.9931 H       
  47 H47           -1.3935    -1.9513     1.6510 H       
@<TRIPOS>BOND
   1    1    2 ar
   2    1    7 1
   3    1    6 ar
   4    2    3 ar
   5    2   30 1
   6    3    4 ar
   7    3   31 1
   8    4    5 ar
   9    4   21 1
  10    5    6 ar
  11    5   32 1
  12    6   33 1
  13    7    8 1
  14    7   34 1
  15    8    9 2
  16    8   12 1
  17    9   10 1
  18    9   14 1
  19   10   11 2
  20   10   13 1
  21   11   12 1
  22   13   35 1
  23   14   15 1
  24   14   16 2
  25   15   17 1
  26   15   36 1
  27   16   37 1
  28   17   18 1
  29   17   19 1
  30   17   38 1
  31   18   39 1
  32   18   40 1
  33   18   41 1
  34   19   20 1
  35   19   42 1
  36   19   43 1
  37   20   44 1
  38   21   22 1
  39   22   23 ar
  40   22   27 ar
  41   23   24 ar
  42   23   28 1
  43   24   25 ar
  44   24   45 1
  45   25   26 ar
  46   25   46 1
  47   26   27 ar
  48   26   29 1
  49   27   47 1

#	End of record

