#	Name: ASD01912534
#	Creating user name:	WinNT
#	Creation time:	15. 06. 2019 19:59

#	Modifying user name:	WinNT
#	Modification time:	15. 06. 2019 19:59

#	Program:	/corina/corina34_cracker 3.40 0067  02.08.2006

@<TRIPOS>MOLECULE
ASD01912534
  25   26    0    0    0
SMALL
NO_CHARGES


@<TRIPOS>ATOM
   1 N1            -0.0159     1.3250     0.0093 N.ar    
   2 C2             0.0021    -0.0041     0.0020 C.ar    
   3 N3             1.1448    -0.6828    -0.0125 N.ar    
   4 C4             2.3050    -0.0508    -0.0202 C.ar    
   5 C5             2.3209     1.3366    -0.0129 C.ar    
   6 C6             1.1107     2.0151     0.0023 C.ar    
   7 C7            -1.2376    -0.7208     0.0105 C.1     
   8 C8            -2.2539    -1.3085     0.0174 C.1     
   9 C9            -3.4936    -2.0252     0.0259 C.ar    
  10 C10           -3.4968    -3.4227     0.0184 C.ar    
  11 C11           -4.7061    -1.3307     0.0475 C.ar    
  12 C12           -5.8961    -2.0278     0.0560 C.ar    
  13 C13           -5.8914    -3.4116     0.0437 C.ar    
  14 C14           -4.6946    -4.1062     0.0271 C.ar    
  15 C15           -7.1960    -4.1659     0.0541 C.3     
  16 H16            3.2303    -0.6076    -0.0317 H       
  17 H17            3.2558     1.8772    -0.0186 H       
  18 H18            1.0899     3.0949     0.0079 H       
  19 H19           -2.5635    -3.9661     0.0055 H       
  20 H20           -4.7113    -0.2507     0.0579 H       
  21 H21           -6.8339    -1.4925     0.0727 H       
  22 H22           -4.6987    -5.1861     0.0172 H       
  23 H23           -7.5240    -4.3386    -0.9709 H       
  24 H24           -7.0584    -5.1227     0.5577 H       
  25 H25           -7.9491    -3.5819     0.5831 H       
@<TRIPOS>BOND
   1    1    2 ar
   2    1    6 ar
   3    2    3 ar
   4    2    7 1
   5    3    4 ar
   6    4    5 ar
   7    4   16 1
   8    5    6 ar
   9    5   17 1
  10    6   18 1
  11    7    8 3
  12    8    9 1
  13    9   10 ar
  14    9   11 ar
  15   10   14 ar
  16   10   19 1
  17   11   12 ar
  18   11   20 1
  19   12   13 ar
  20   12   21 1
  21   13   14 ar
  22   13   15 1
  23   14   22 1
  24   15   23 1
  25   15   24 1
  26   15   25 1

#	End of record

