#	Name: ASD02039110
#	Creating user name:	WinNT
#	Creation time:	15. 06. 2019 20:17

#	Modifying user name:	WinNT
#	Modification time:	15. 06. 2019 20:17

#	Program:	/corina/corina34_cracker 3.40 0067  02.08.2006

@<TRIPOS>MOLECULE
ASD02039110
  40   43    0    0    0
SMALL
NO_CHARGES


@<TRIPOS>ATOM
   1 N1             0.0234     1.2845    -0.3602 N.2     
   2 N2             0.0397    -0.0019    -0.3611 N.2     
   3 C3             1.2243     1.7332    -0.0873 C.2     
   4 O4             2.0203     0.6621     0.0886 O.3     
   5 C5             1.2410    -0.4221    -0.0913 C.2     
   6 N6             1.6033     3.0607     0.0028 N.pl3   
   7 C7             0.6403     4.0705    -0.0881 C.ar    
   8 C8             1.6808    -1.8604     0.0032 C.3     
   9 C9             2.1409    -2.3350    -1.3511 C.ar    
  10 C10           -0.6623     3.8294     0.3296 C.ar    
  11 C11            0.9859     5.3183    -0.5909 C.ar    
  12 C12            0.0329     6.3139    -0.6791 C.ar    
  13 C13           -1.2653     6.0693    -0.2671 C.ar    
  14 C14           -1.6112     4.8286     0.2392 C.ar    
  15 Cl15          -2.4606     7.3233    -0.3788 Cl      
  16 C16            3.4672    -2.1945    -1.7176 C.ar    
  17 C17            1.2374    -2.9152    -2.2221 C.ar    
  18 C18            1.6556    -3.3521    -3.4643 C.ar    
  19 C19            2.9850    -3.2075    -3.8370 C.ar    
  20 C20            3.8910    -2.6289    -2.9576 C.ar    
  21 N21            3.4149    -3.6469    -5.0928 N.am    
  22 C22            4.7225    -3.8576    -5.3308 C.2     
  23 C23            5.7462    -3.6446    -4.2484 C.3     
  24 C24            5.3335    -2.4718    -3.3630 C.3     
  25 O25            5.0801    -4.2239    -6.4303 O.2     
  26 H26            2.5371     3.2910     0.1290 H       
  27 H27            2.5018    -1.9432     0.7154 H       
  28 H28            0.8452    -2.4745     0.3389 H       
  29 H29           -0.9328     2.8612     0.7245 H       
  30 H30            1.9991     5.5099    -0.9123 H       
  31 H31            0.3012     7.2845    -1.0697 H       
  32 H32           -2.6251     4.6404     0.5600 H       
  33 H33            4.1715    -1.7445    -1.0336 H       
  34 H34            0.2035    -3.0273    -1.9310 H       
  35 H35            0.9495    -3.8057    -4.1440 H       
  36 H36            2.7662    -3.8013    -5.7972 H       
  37 H37            5.8217    -4.5453    -3.6392 H       
  38 H38            6.7145    -3.4339    -4.7024 H       
  39 H39            5.4543    -1.5398    -3.9151 H       
  40 H40            5.9618    -2.4503    -2.4725 H       
@<TRIPOS>BOND
   1    1    2 1
   2    1    3 2
   3    2    5 2
   4    3    4 1
   5    3    6 1
   6    4    5 1
   7    5    8 1
   8    6    7 1
   9    6   26 1
  10    7   10 ar
  11    7   11 ar
  12    8    9 1
  13    8   27 1
  14    8   28 1
  15    9   16 ar
  16    9   17 ar
  17   10   14 ar
  18   10   29 1
  19   11   12 ar
  20   11   30 1
  21   12   13 ar
  22   12   31 1
  23   13   14 ar
  24   13   15 1
  25   14   32 1
  26   16   20 ar
  27   16   33 1
  28   17   18 ar
  29   17   34 1
  30   18   19 ar
  31   18   35 1
  32   19   20 ar
  33   19   21 1
  34   20   24 1
  35   21   22 am
  36   21   36 1
  37   22   23 1
  38   22   25 2
  39   23   24 1
  40   23   37 1
  41   23   38 1
  42   24   39 1
  43   24   40 1

#	End of record

