#	Name: ASD05490034
#	Creating user name:	WinNT
#	Creation time:	15. 06. 2019 21:00

#	Modifying user name:	WinNT
#	Modification time:	15. 06. 2019 21:00

#	Program:	/corina/corina34_cracker 3.40 0067  02.08.2006

@<TRIPOS>MOLECULE
ASD05490034
  63   67    0    0    0
SMALL
NO_CHARGES


@<TRIPOS>ATOM
   1 O1            -0.0173     1.4248     0.0099 O.3     
   2 N2             2.7162     5.3699     0.0053 N.am    
   3 N3             2.2880     1.3303    -0.0126 N.ar    
   4 C4             3.4867     1.9104    -0.0211 C.ar    
   5 C5             1.1817     2.0564     0.0018 C.ar    
   6 N6             1.2086     3.3789     0.0091 N.ar    
   7 C7             2.3660     4.0319     0.0015 C.ar    
   8 C8             3.5555     3.3024    -0.0142 C.ar    
   9 N9             4.6434     1.1447    -0.0366 N.pl3   
  10 C10            4.0594     5.4635    -0.0126 C.2     
  11 N11            4.5983     4.2283    -0.0196 N.am    
  12 O12            4.6902     6.5042    -0.0150 O.2     
  13 C13            1.7812     6.4976     0.0199 C.3     
  14 C14            1.4739     6.8769     1.4457 C.2     
  15 S15            0.1686     6.2199     2.4312 S.3     
  16 C16            0.0021    -0.0041     0.0020 C.3     
  17 C17           -1.4333    -0.5336     0.0129 C.3     
  18 C18           -1.4126    -2.0635     0.0045 C.3     
  19 C19           -2.8479    -2.5931     0.0153 C.3     
  20 C20            2.1479     7.7656     2.1833 C.2     
  21 N21            1.7082     7.9445     3.4075 N.2     
  22 C22            0.6733     7.2437     3.7732 C.2     
  23 C23            0.0271     7.2969     5.1022 C.ar    
  24 C24            0.5231     8.1500     6.0888 C.ar    
  25 C25           -0.0843     8.1949     7.3268 C.ar    
  26 C26           -1.1826     7.3961     7.5911 C.ar    
  27 C27           -1.6792     6.5481     6.6172 C.ar    
  28 C28           -1.0847     6.4984     5.3731 C.ar    
  29 C29           -2.3692     9.7704     8.4593 C.3     
  30 C30           -3.1145    10.8732     9.2337 C.3     
  31 C31           -4.0628    10.1208    10.1954 C.3     
  32 C32           -3.4017     8.7244    10.3116 C.3     
  33 N33           -2.8940     8.4733     8.9386 N.3     
  34 C34           -1.8405     7.4495     8.9458 C.3     
  35 H35            4.5841     0.1765    -0.0414 H       
  36 H36            5.5114     1.5775    -0.0427 H       
  37 H37            5.5456     4.0197    -0.0267 H       
  38 H38            2.2297     7.3481    -0.4936 H       
  39 H39            0.8594     6.2120    -0.4868 H       
  40 H40            0.5123    -0.3556    -0.8948 H       
  41 H41            0.5293    -0.3651     0.8851 H       
  42 H42           -1.9435    -0.1821     0.9097 H       
  43 H43           -1.9605    -0.1726    -0.8702 H       
  44 H44           -0.9024    -2.4150    -0.8923 H       
  45 H45           -0.8854    -2.4246     0.8875 H       
  46 H46           -3.3751    -2.2320    -0.8677 H       
  47 H47           -2.8332    -3.6829     0.0093 H       
  48 H48           -3.3581    -2.2415     0.9121 H       
  49 H49            3.0013     8.3026     1.7961 H       
  50 H50            1.3808     8.7736     5.8840 H       
  51 H51            0.2985     8.8547     8.0913 H       
  52 H52           -2.5366     5.9269     6.8299 H       
  53 H53           -1.4733     5.8360     4.6138 H       
  54 H54           -2.5573     9.8751     7.3908 H       
  55 H55           -1.2995     9.8348     8.6588 H       
  56 H56           -2.4085    11.4822     9.7982 H       
  57 H57           -3.6881    11.4960     8.5472 H       
  58 H58           -4.0971    10.6135    11.1671 H       
  59 H59           -5.0619    10.0401     9.7671 H       
  60 H60           -2.5801     8.7461    11.0276 H       
  61 H61           -4.1387     7.9721    10.5928 H       
  62 H62           -2.2792     6.4785     9.1753 H       
  63 H63           -1.0960     7.6996     9.7017 H       
@<TRIPOS>BOND
   1    1   16 1
   2    1    5 1
   3    2   13 1
   4    2    7 1
   5    2   10 am
   6    3    4 ar
   7    3    5 ar
   8    4    9 1
   9    4    8 ar
  10    5    6 ar
  11    6    7 ar
  12    7    8 ar
  13    8   11 1
  14    9   35 1
  15    9   36 1
  16   10   11 am
  17   10   12 2
  18   11   37 1
  19   13   14 1
  20   13   38 1
  21   13   39 1
  22   14   20 2
  23   14   15 1
  24   15   22 1
  25   16   17 1
  26   16   40 1
  27   16   41 1
  28   17   18 1
  29   17   42 1
  30   17   43 1
  31   18   19 1
  32   18   44 1
  33   18   45 1
  34   19   46 1
  35   19   47 1
  36   19   48 1
  37   20   21 1
  38   20   49 1
  39   21   22 2
  40   22   23 1
  41   23   24 ar
  42   23   28 ar
  43   24   25 ar
  44   24   50 1
  45   25   26 ar
  46   25   51 1
  47   26   27 ar
  48   26   34 1
  49   27   28 ar
  50   27   52 1
  51   28   53 1
  52   29   30 1
  53   29   33 1
  54   29   54 1
  55   29   55 1
  56   30   31 1
  57   30   56 1
  58   30   57 1
  59   31   32 1
  60   31   58 1
  61   31   59 1
  62   32   33 1
  63   32   60 1
  64   32   61 1
  65   33   34 1
  66   34   62 1
  67   34   63 1

#	End of record

