#	Name: ASD00843113
#	Creating user name:	WinNT
#	Creation time:	15. 06. 2019 18:46

#	Modifying user name:	WinNT
#	Modification time:	15. 06. 2019 18:46

#	Program:	/corina/corina34_cracker 3.40 0067  02.08.2006

@<TRIPOS>MOLECULE
ASD00843113
  94   99    0    0    0
SMALL
NO_CHARGES


@<TRIPOS>ATOM
   1 F1            -0.1010    -3.1560     4.7185 F       
   2 N2            -0.0052     1.3210     0.0354 N.ar    
   3 C3             0.0088    -0.0013     0.0185 C.ar    
   4 C4             1.2116    -0.6962    -0.0015 C.ar    
   5 C5             2.3993     0.0138    -0.0035 C.ar    
   6 C6             2.3417     1.4008     0.0147 C.ar    
   7 C7             1.1108     2.0254     0.0340 C.ar    
   8 C8             1.2227    -2.2030    -0.0203 C.3     
   9 C9             0.4753    -2.7236    -1.2293 C.2     
  10 N10            2.5990    -2.7049    -0.0126 N.am    
  11 C11            3.4464    -2.3633    -1.0034 C.2     
  12 N12            4.7400    -2.7368    -0.9424 N.am    
  13 O13            3.0439    -1.7183    -1.9522 O.2     
  14 C14            5.2678    -3.4156     0.2489 C.3     
  15 C15            6.4986    -2.6515     0.7470 C.3     
  16 C16            7.5064    -2.5146    -0.3967 C.3     
  17 C17            6.8755    -1.7199    -1.5424 C.3     
  18 C18            5.6476    -2.4785    -2.0686 C.3     
  19 C19            8.7519    -1.7821     0.1064 C.3     
  20 C20            9.3853    -2.5768     1.2517 C.3     
  21 C21           10.6636    -1.8712     1.7099 C.3     
  22 N22           11.5999    -1.7715     0.5830 N.3     
  23 C23           11.0318    -0.9725    -0.5103 C.3     
  24 C24            9.7644    -1.6513    -1.0347 C.3     
  25 C25           12.8917    -1.2243     1.0187 C.3     
  26 O26            0.7564    -2.5210    -2.3917 O.2     
  27 N27           -0.5572    -3.4525    -0.7739 N.am    
  28 C28            0.4488    -2.7530     1.1565 C.ar    
  29 C29           -0.6026    -3.4906     0.6219 C.ar    
  30 C30            0.6177    -2.6397     2.5188 C.ar    
  31 C31           -0.2652    -3.2651     3.3819 C.ar    
  32 C32           -1.3282    -4.0109     2.8624 C.ar    
  33 C33           -1.4932    -4.1219     1.4821 C.ar    
  34 C34           -1.0260    -5.8357    -2.0681 C.ar    
  35 C35           -1.3600    -6.8798    -1.2255 C.ar    
  36 C36           -0.2077    -6.0598    -3.1598 C.ar    
  37 C37            0.2784    -7.3283    -3.4112 C.ar    
  38 C38           -0.0551    -8.3776    -2.5673 C.ar    
  39 C39           -0.8761    -8.1500    -1.4723 C.ar    
  40 O40            0.4214    -9.6264    -2.8127 O.3     
  41 H41           -1.9994    -6.7022    -0.3735 H       
  42 C42            0.0369   -10.6582    -1.9019 C.3     
  43 C43           13.9130    -1.3659    -0.1117 C.3     
  44 C44           15.2584    -0.7961     0.3421 C.3     
  45 C45           -2.2466    -4.6614     3.7479 C.1     
  46 N46           -2.9751    -5.1774     4.4504 N.1     
  47 O47           -1.1626    -0.6857     0.0211 O.3     
  48 C48           -2.3650     0.0862     0.0425 C.3     
  49 C49           -3.5735    -0.8520     0.0423 C.3     
  50 F50           -3.5485    -1.6443    -1.1105 F       
  51 F51           -3.5265    -1.6734     1.1738 F       
  52 S52           -1.6503    -4.2181    -1.7544 S.o2    
  53 O53           -2.8319    -4.3867    -0.9832 O.2     
  54 O54           -1.6251    -3.5302    -2.9975 O.2     
  55 H55            3.3495    -0.4994    -0.0185 H       
  56 H56            3.2501     1.9849     0.0140 H       
  57 H57            1.0604     3.1041     0.0479 H       
  58 H58            2.9004    -3.2830     0.7057 H       
  59 H59            4.5064    -3.4299     1.0288 H       
  60 H60            5.5506    -4.4366    -0.0074 H       
  61 H61            6.1984    -1.6606     1.0879 H       
  62 H62            6.9565    -3.1973     1.5719 H       
  63 H63            7.7874    -3.5054    -0.7536 H       
  64 H64            6.5717    -0.7378    -1.1799 H       
  65 H65            7.6015    -1.6027    -2.3468 H       
  66 H66            5.9639    -3.4218    -2.5137 H       
  67 H67            5.1365    -1.8723    -2.8166 H       
  68 H68            8.4724    -0.7904     0.4621 H       
  69 H69            8.6843    -2.6368     2.0843 H       
  70 H70            9.6280    -3.5818     0.9066 H       
  71 H71           10.4183    -0.8713     2.0677 H       
  72 H72           11.1248    -2.4422     2.5157 H       
  73 H73           10.7847     0.0232    -0.1420 H       
  74 H74           11.7603    -0.8907    -1.3169 H       
  75 H75           10.0132    -2.6417    -1.4158 H       
  76 H76            9.3344    -1.0499    -1.8357 H       
  77 H77           12.7733    -0.1707     1.2715 H       
  78 H78           13.2411    -1.7711     1.8946 H       
  79 H79            1.4404    -2.0624     2.9140 H       
  80 H80           -2.3141    -4.6980     1.0813 H       
  81 H81            0.0514    -5.2427    -3.8167 H       
  82 H82            0.9174    -7.5029    -4.2643 H       
  83 H83           -1.1375    -8.9653    -0.8141 H       
  84 H84           -1.0489   -10.7543    -1.8993 H       
  85 H85            0.4845   -11.6023    -2.2124 H       
  86 H86            0.3816   -10.4049    -0.8994 H       
  87 H87           14.0313    -2.4196    -0.3646 H       
  88 H88           13.5636    -0.8192    -0.9876 H       
  89 H89           15.1400     0.2576     0.5949 H       
  90 H90           15.6077    -1.3428     1.2179 H       
  91 H91           15.9859    -0.8969    -0.4633 H       
  92 H92           -2.3844     0.7035     0.9407 H       
  93 H93           -2.4016     0.7262    -0.8391 H       
  94 H94           -4.4906    -0.2632     0.0586 H       
@<TRIPOS>BOND
   1    1   31 1
   2    2    3 ar
   3    2    7 ar
   4    3    4 ar
   5    3   47 1
   6    4    5 ar
   7    4    8 1
   8    5    6 ar
   9    5   55 1
  10    6    7 ar
  11    6   56 1
  12    7   57 1
  13    8    9 1
  14    8   10 1
  15    8   28 1
  16    9   26 2
  17    9   27 am
  18   10   11 am
  19   10   58 1
  20   11   12 am
  21   11   13 2
  22   12   14 1
  23   12   18 1
  24   14   15 1
  25   14   59 1
  26   14   60 1
  27   15   16 1
  28   15   61 1
  29   15   62 1
  30   16   17 1
  31   16   19 1
  32   16   63 1
  33   17   18 1
  34   17   64 1
  35   17   65 1
  36   18   66 1
  37   18   67 1
  38   19   20 1
  39   19   24 1
  40   19   68 1
  41   20   21 1
  42   20   69 1
  43   20   70 1
  44   21   22 1
  45   21   71 1
  46   21   72 1
  47   22   23 1
  48   22   25 1
  49   23   24 1
  50   23   73 1
  51   23   74 1
  52   24   75 1
  53   24   76 1
  54   25   43 1
  55   25   77 1
  56   25   78 1
  57   27   52 am
  58   27   29 1
  59   28   29 ar
  60   28   30 ar
  61   29   33 ar
  62   30   31 ar
  63   30   79 1
  64   31   32 ar
  65   32   33 ar
  66   32   45 1
  67   33   80 1
  68   34   35 ar
  69   34   36 ar
  70   34   52 1
  71   35   41 1
  72   35   39 ar
  73   36   37 ar
  74   36   81 1
  75   37   38 ar
  76   37   82 1
  77   38   39 ar
  78   38   40 1
  79   39   83 1
  80   40   42 1
  81   42   84 1
  82   42   85 1
  83   42   86 1
  84   43   44 1
  85   43   87 1
  86   43   88 1
  87   44   89 1
  88   44   90 1
  89   44   91 1
  90   45   46 3
  91   47   48 1
  92   48   49 1
  93   48   92 1
  94   48   93 1
  95   49   50 1
  96   49   51 1
  97   49   94 1
  98   52   53 2
  99   52   54 2

#	End of record

