#	Name: ASD06340041
#	Creating user name:	WinNT
#	Creation time:	15. 06. 2019 21:05

#	Modifying user name:	WinNT
#	Modification time:	15. 06. 2019 21:05

#	Program:	/corina/corina34_cracker 3.40 0067  02.08.2006

@<TRIPOS>MOLECULE
ASD06340041
  35   37    0    0    0
SMALL
NO_CHARGES


@<TRIPOS>ATOM
   1 S1            -0.0210     1.6939     0.0114 S.3     
   2 N2             0.0021    -0.0041     0.0020 N.am    
   3 C3             1.2962    -0.3594    -0.0122 C.2     
   4 N4             2.1856     0.6226    -0.0155 N.am    
   5 C5             1.6912     1.8721    -0.0040 C.2     
   6 O6             1.6365    -1.5276    -0.0214 O.2     
   7 O7             2.3224     2.9128    -0.0052 O.2     
   8 C8             3.6269     0.3610    -0.0302 C.3     
   9 C9             4.1080     0.2785    -1.4559 C.ar    
  10 C10            4.5425     1.4186    -2.1058 C.ar    
  11 C11            4.9837     1.3430    -3.4137 C.ar    
  12 C12            4.9909     0.1272    -4.0715 C.ar    
  13 C13            4.5573    -1.0130    -3.4213 C.ar    
  14 C14            4.1201    -0.9381    -2.1121 C.ar    
  15 C15           -1.1035    -0.8590     0.0084 C.ar    
  16 C16           -2.3259    -0.4204    -0.4858 C.ar    
  17 C17           -3.4161    -1.2676    -0.4780 C.ar    
  18 C18           -3.2925    -2.5517     0.0211 C.ar    
  19 C19           -2.0776    -2.9915     0.5137 C.ar    
  20 C20           -0.9815    -2.1511     0.5036 C.ar    
  21 C21           -4.7423    -0.7926    -1.0133 C.3     
  22 F22           -4.8236    -1.0803    -2.3800 F       
  23 F23           -5.7788    -1.4449    -0.3370 F       
  24 F24           -4.8557     0.5883    -0.8198 F       
  25 H25            4.1482     1.1691     0.4830 H       
  26 H26            3.8302    -0.5822     0.4770 H       
  27 H27            4.5369     2.3685    -1.5919 H       
  28 H28            5.3225     2.2338    -3.9216 H       
  29 H29            5.3349     0.0683    -5.0935 H       
  30 H30            4.5625    -1.9628    -3.9354 H       
  31 H31            3.7848    -1.8296    -1.6029 H       
  32 H32           -2.4232     0.5822    -0.8753 H       
  33 H33           -4.1469    -3.2122     0.0264 H       
  34 H34           -1.9847    -3.9946     0.9029 H       
  35 H35           -0.0318    -2.4968     0.8843 H       
@<TRIPOS>BOND
   1    1    2 1
   2    1    5 1
   3    2    3 am
   4    2   15 1
   5    3    4 am
   6    3    6 2
   7    4    5 am
   8    4    8 1
   9    5    7 2
  10    8    9 1
  11    8   25 1
  12    8   26 1
  13    9   10 ar
  14    9   14 ar
  15   10   11 ar
  16   10   27 1
  17   11   12 ar
  18   11   28 1
  19   12   13 ar
  20   12   29 1
  21   13   14 ar
  22   13   30 1
  23   14   31 1
  24   15   16 ar
  25   15   20 ar
  26   16   17 ar
  27   16   32 1
  28   17   18 ar
  29   17   21 1
  30   18   19 ar
  31   18   33 1
  32   19   20 ar
  33   19   34 1
  34   20   35 1
  35   21   22 1
  36   21   23 1
  37   21   24 1

#	End of record

