#	Name: ASD05660012
#	Creating user name:	WinNT
#	Creation time:	15. 06. 2019 21:01

#	Modifying user name:	WinNT
#	Modification time:	15. 06. 2019 21:01

#	Program:	/corina/corina34_cracker 3.40 0067  02.08.2006

@<TRIPOS>MOLECULE
ASD05660012
  60   64    0    0    0
SMALL
NO_CHARGES


@<TRIPOS>ATOM
   1 C1            -0.0167     1.3839     0.0097 C.ar    
   2 C2             0.0021    -0.0041     0.0020 C.ar    
   3 C3             1.2256    -2.0201    -0.3631 C.3     
   4 C4             2.5949    -2.6200    -0.0277 C.3     
   5 C5             3.6690    -1.7999    -0.7470 C.3     
   6 C6             3.2790    -1.6082    -2.1911 C.ar    
   7 C7             4.2534    -1.2389    -3.0961 C.ar    
   8 C8             3.9277    -1.0491    -4.4408 C.ar    
   9 C9             4.9697    -0.6550    -5.4072 C.2     
  10 C10            2.6093    -1.2350    -4.8663 C.ar    
  11 C11            1.6440    -1.6044    -3.9592 C.ar    
  12 C12            1.9721    -1.7949    -2.6176 C.ar    
  13 C13            0.1387    -2.7549     0.4283 C.3     
  14 C14           -1.2245    -2.2087    -0.0047 C.3     
  15 C15           -1.1935    -0.7014     0.0068 C.ar    
  16 C16           -2.3884    -0.0076     0.0195 C.ar    
  17 C17           -2.4059     1.3805     0.0274 C.ar    
  18 C18           -4.3443     2.0187    -1.3746 C.3     
  19 C19           -3.7473     2.0661     0.0333 C.3     
  20 C20           -4.6816     1.3385     1.0021 C.3     
  21 C21           -3.6041     3.5223     0.4709 C.3     
  22 C22           -2.5050     4.1757    -0.3753 C.3     
  23 C23           -1.1604     3.5822     0.0404 C.3     
  24 C24           -0.0779     4.0556    -0.9317 C.3     
  25 C25           -0.8132     4.0594     1.4520 C.3     
  26 C26           -1.2178     2.0769     0.0306 C.ar    
  27 O27            1.2023    -0.6406    -0.0037 O.3     
  28 O28            4.6517    -0.4728    -6.7038 O.3     
  29 O29            6.1148    -0.4946    -5.0341 O.2     
  30 O30            0.9883    -2.1690    -1.7608 O.3     
  31 H31            0.9148     1.9304     0.0037 H       
  32 H32            2.7604    -2.5783     1.0489 H       
  33 H33            2.6349    -3.6555    -0.3655 H       
  34 H34            3.7658    -0.8269    -0.2652 H       
  35 H35            4.6221    -2.3263    -0.6961 H       
  36 H36            5.2709    -1.0958    -2.7633 H       
  37 H37            2.3495    -1.0887    -5.9043 H       
  38 H38            0.6252    -1.7476    -4.2880 H       
  39 H39            0.1900    -3.8232     0.2179 H       
  40 H40            0.2818    -2.5834     1.4951 H       
  41 H41           -1.4528    -2.5593    -1.0112 H       
  42 H42           -1.9919    -2.5605     0.6849 H       
  43 H43           -3.3210    -0.5523     0.0230 H       
  44 H44           -5.3195     2.5058    -1.3723 H       
  45 H45           -3.6814     2.5363    -2.0680 H       
  46 H46           -4.4575     0.9805    -1.6866 H       
  47 H47           -4.7944     0.3009     0.6879 H       
  48 H48           -4.2595     1.3701     2.0066 H       
  49 H49           -5.6564     1.8262     1.0021 H       
  50 H50           -4.5470     4.0466     0.3161 H       
  51 H51           -3.3299     3.5635     1.5250 H       
  52 H52           -2.6851     3.9729    -1.4310 H       
  53 H53           -2.5002     5.2520    -0.2032 H       
  54 H54           -0.0197     5.1438    -0.9087 H       
  55 H55            0.8835     3.6341    -0.6382 H       
  56 H56           -0.3263     3.7262    -1.9406 H       
  57 H57           -1.5871     3.7327     2.1466 H       
  58 H58            0.1461     3.6378     1.7524 H       
  59 H59           -0.7512     5.1476     1.4627 H       
  60 H60            5.3684    -0.2149    -7.2995 H       
@<TRIPOS>BOND
   1    1    2 ar
   2    1   31 1
   3    1   26 ar
   4    2   15 ar
   5    2   27 1
   6    3   13 1
   7    3    4 1
   8    3   27 1
   9    3   30 1
  10    4   32 1
  11    4   33 1
  12    4    5 1
  13    5   34 1
  14    5   35 1
  15    5    6 1
  16    6    7 ar
  17    6   12 ar
  18    7   36 1
  19    7    8 ar
  20    8    9 1
  21    8   10 ar
  22    9   28 1
  23    9   29 2
  24   10   11 ar
  25   10   37 1
  26   11   12 ar
  27   11   38 1
  28   12   30 1
  29   13   39 1
  30   13   40 1
  31   13   14 1
  32   14   41 1
  33   14   42 1
  34   14   15 1
  35   15   16 ar
  36   16   43 1
  37   16   17 ar
  38   17   19 1
  39   17   26 ar
  40   18   19 1
  41   18   44 1
  42   18   45 1
  43   18   46 1
  44   19   20 1
  45   19   21 1
  46   20   47 1
  47   20   48 1
  48   20   49 1
  49   21   50 1
  50   21   51 1
  51   21   22 1
  52   22   23 1
  53   22   52 1
  54   22   53 1
  55   23   26 1
  56   23   24 1
  57   23   25 1
  58   24   54 1
  59   24   55 1
  60   24   56 1
  61   25   57 1
  62   25   58 1
  63   25   59 1
  64   28   60 1

#	End of record

