#	Name: ASD01028593
#	Creating user name:	WinNT
#	Creation time:	15. 06. 2019 18:57

#	Modifying user name:	WinNT
#	Modification time:	15. 06. 2019 18:57

#	Program:	/corina/corina34_cracker 3.40 0067  02.08.2006

@<TRIPOS>MOLECULE
ASD01028593
  40   44    0    0    0
SMALL
NO_CHARGES


@<TRIPOS>ATOM
   1 N1            -0.0169     1.3921     0.0097 N.2     
   2 N2             0.0021    -0.0041     0.0020 N.pl3   
   3 C3             1.1072     2.0742     0.0026 C.2     
   4 C4             2.3534     1.4122    -0.0128 C.2     
   5 C5             2.4037     0.0541    -0.0206 C.2     
   6 C6             1.2007    -0.6771    -0.0130 C.2     
   7 N7             0.9143    -1.9687    -0.0172 N.2     
   8 N8            -0.3640    -2.1207    -0.0058 N.2     
   9 C9            -0.9586    -0.9538     0.0054 C.2     
  10 C10           -2.4463    -0.7138     0.0206 C.3     
  11 N11           -2.9155    -0.6432     1.4066 N.pl3   
  12 C12           -4.2630    -0.4268     1.6745 C.ar    
  13 C13           -5.1826    -0.2747     0.6428 C.ar    
  14 C14           -6.5151    -0.0613     0.9457 C.ar    
  15 N15           -6.9349     0.0019     2.1933 N.ar    
  16 C16           -6.1038    -0.1360     3.2170 C.ar    
  17 C17           -4.7367    -0.3612     2.9964 C.ar    
  18 C18            1.0649     3.5569     0.0105 C.ar    
  19 C19           -0.1604     4.2206     0.0253 C.ar    
  20 C20            2.2504     4.2895     0.0089 C.ar    
  21 C21           -0.1960     5.6020     0.0331 C.ar    
  22 C22            2.2072     5.6706     0.0168 C.ar    
  23 C23            0.9859     6.3279     0.0257 C.ar    
  24 F24            3.3560     6.3816     0.0153 F       
  25 F25            0.9473     7.6783     0.0325 F       
  26 F26           -1.3834     6.2463     0.0474 F       
  27 N27           -6.2660    -0.1144     4.5851 N.pl3   
  28 C28           -5.0403    -0.3139     5.1446 C.2     
  29 N29           -4.1443    -0.4594     4.2128 N.2     
  30 H30            3.2685     1.9857    -0.0188 H       
  31 H31            3.3546    -0.4578    -0.0321 H       
  32 H32           -2.6681     0.2253    -0.4864 H       
  33 H33           -2.9516    -1.5319    -0.4928 H       
  34 H34           -2.2863    -0.7474     2.1375 H       
  35 H35           -4.8590    -0.3224    -0.3864 H       
  36 H36           -7.2271     0.0565     0.1422 H       
  37 H37           -1.0811     3.6560     0.0303 H       
  38 H38            3.2018     3.7783     0.0020 H       
  39 H39           -7.1000     0.0188     5.0622 H       
  40 H40           -4.8420    -0.3494     6.2057 H       
@<TRIPOS>BOND
   1    1    2 1
   2    1    3 2
   3    2    6 1
   4    2    9 1
   5    3    4 1
   6    3   18 1
   7    4    5 2
   8    4   30 1
   9    5    6 1
  10    5   31 1
  11    6    7 2
  12    7    8 1
  13    8    9 2
  14    9   10 1
  15   10   11 1
  16   10   32 1
  17   10   33 1
  18   11   12 1
  19   11   34 1
  20   12   13 ar
  21   12   17 ar
  22   13   14 ar
  23   13   35 1
  24   14   15 ar
  25   14   36 1
  26   15   16 ar
  27   16   17 ar
  28   16   27 1
  29   17   29 1
  30   18   19 ar
  31   18   20 ar
  32   19   21 ar
  33   19   37 1
  34   20   22 ar
  35   20   38 1
  36   21   26 1
  37   21   23 ar
  38   22   23 ar
  39   22   24 1
  40   23   25 1
  41   27   28 1
  42   27   39 1
  43   28   29 2
  44   28   40 1

#	End of record

