#	Name: ASD05740003
#	Creating user name:	WinNT
#	Creation time:	15. 06. 2019 21:02

#	Modifying user name:	WinNT
#	Modification time:	15. 06. 2019 21:02

#	Program:	/corina/corina34_cracker 3.40 0067  02.08.2006

@<TRIPOS>MOLECULE
ASD05740003
  53   54    0    0    0
SMALL
NO_CHARGES


@<TRIPOS>ATOM
   1 C1            -0.0159     1.3225     0.0093 C.ar    
   2 N2             0.0021    -0.0041     0.0020 N.ar    
   3 C3            -1.1032    -0.7198     0.0087 C.ar    
   4 C4            -2.3473    -0.0861     0.0240 C.ar    
   5 C5            -2.4041     1.3232     0.0321 C.ar    
   6 C6            -1.2092     2.0287     0.0302 C.ar    
   7 C7            -3.5981    -0.8456     0.0313 C.2     
   8 C8            -4.7666    -0.1522     0.0458 C.2     
   9 C9            -4.7479     1.2581     0.0533 C.2     
  10 O10           -3.5960     1.9497     0.0468 O.3     
  11 C11           -6.0810    -0.8893     0.0534 C.3     
  12 C12           -6.5670    -1.0351     1.4724 C.ar    
  13 C13           -6.3003    -2.1880     2.1997 C.ar    
  14 O14           -5.8037     1.8649     0.0658 O.2     
  15 C15           -7.7164    -0.1927     3.3964 C.ar    
  16 N16           -7.4457    -1.3096     4.0528 N.ar    
  17 C17           -6.7589    -2.2904     3.4971 C.ar    
  18 O18            1.1572     2.0020     0.0018 O.3     
  19 N19           -8.4433     0.8158     4.0213 N.am    
  20 S20           -8.9659     0.6157     5.5799 S.o2    
  21 O21           -9.6781     1.8113     5.8670 O.2     
  22 O22           -9.6231    -0.6442     5.5702 O.2     
  23 C23           -3.5905    -2.3526     0.0226 C.3     
  24 C24           -7.4423     0.5312     6.5608 C.3     
  25 C25           -7.7962     0.3448     8.0376 C.3     
  26 C26            2.3566     1.2255    -0.0139 C.3     
  27 C27           -7.2846    -0.0205     2.0828 C.ar    
  28 F28           -7.5619     1.1204     1.4144 F       
  29 H29           -1.0474    -1.7984     0.0020 H       
  30 H30           -1.2087     3.1087     0.0366 H       
  31 H31           -6.8149    -0.3293    -0.5263 H       
  32 H32           -5.9464    -1.8768    -0.3878 H       
  33 H33           -5.7398    -2.9965     1.7540 H       
  34 H34           -6.5533    -3.1854     4.0656 H       
  35 H35           -8.6440     1.6360     3.5440 H       
  36 H36           -2.5611    -2.7107     0.0109 H       
  37 H37           -4.0942    -2.7236     0.9153 H       
  38 H38           -4.1108    -2.7134    -0.8646 H       
  39 H39           -6.8387    -0.3110     6.2227 H       
  40 H40           -6.8783     1.4556     6.4363 H       
  41 H41           -8.3998     1.1871     8.3757 H       
  42 H42           -8.3602    -0.5796     8.1622 H       
  43 H43           -6.8807     0.2941     8.6270 H       
  44 H44            2.3909     0.5919     0.8724 H       
  45 H45            2.3739     0.6015    -0.9074 H       
  46 H46            3.2201     1.8907    -0.0185 H       
  47 C47            8.7473    10.7780    15.4953 C.3     
  48 N48            8.7671     9.3132    15.4873 N.2     
  49 C49            9.3079     8.7006    14.5413 C.1     
  50 O50            9.8304     8.1087    13.6270 O.2     
  51 H51            9.7699    11.1553    15.4876 H       
  52 H52            8.2201    11.1391    14.6123 H       
  53 H53            8.2371    11.1295    16.3921 H       
@<TRIPOS>BOND
   1    1    2 ar
   2    1   18 1
   3    1    6 ar
   4    2    3 ar
   5    3    4 ar
   6    3   29 1
   7    4    5 ar
   8    4    7 1
   9    5    6 ar
  10    5   10 1
  11    6   30 1
  12    7    8 2
  13    7   23 1
  14    8    9 1
  15    8   11 1
  16    9   10 1
  17    9   14 2
  18   11   12 1
  19   11   31 1
  20   11   32 1
  21   12   13 ar
  22   12   27 ar
  23   13   17 ar
  24   13   33 1
  25   15   16 ar
  26   15   19 1
  27   15   27 ar
  28   16   17 ar
  29   17   34 1
  30   18   26 1
  31   19   20 am
  32   19   35 1
  33   20   21 2
  34   20   22 2
  35   20   24 1
  36   23   36 1
  37   23   37 1
  38   23   38 1
  39   24   25 1
  40   24   39 1
  41   24   40 1
  42   25   41 1
  43   25   42 1
  44   25   43 1
  45   26   44 1
  46   26   45 1
  47   26   46 1
  48   27   28 1
  49   47   48 1
  50   47   51 1
  51   47   52 1
  52   47   53 1
  53   48   49 2
  54   49   50 2

#	End of record

