#	Name: ASD01880178
#	Creating user name:	WinNT
#	Creation time:	15. 06. 2019 19:40

#	Modifying user name:	WinNT
#	Modification time:	15. 06. 2019 19:40

#	Program:	/corina/corina34_cracker 3.40 0067  02.08.2006

@<TRIPOS>MOLECULE
ASD01880178
  72   75    0    0    0
SMALL
NO_CHARGES


@<TRIPOS>ATOM
   1 C1            -0.0166     1.3765     0.0096 C.ar    
   2 C2             0.0021    -0.0041     0.0020 C.ar    
   3 C3            -1.1907    -0.7221     0.0090 C.ar    
   4 C4            -2.4029    -0.0685     0.0241 C.ar    
   5 C5            -2.4432     1.3214     0.0324 C.ar    
   6 C6            -1.2399     2.0497     0.0307 C.ar    
   7 O7             1.1904    -0.6651    -0.0128 O.3     
   8 C8             1.1383    -2.0932    -0.0200 C.3     
   9 C9             5.3303    -8.1526    -0.0924 C.ar    
  10 C10            6.5942    -8.7280    -0.1075 C.ar    
  11 C11            6.7288   -10.0998    -0.1109 C.ar    
  12 C12            5.5931   -10.9106    -0.0986 C.ar    
  13 C13            4.3247   -10.3289    -0.0830 C.ar    
  14 C14            4.1978    -8.9564    -0.0802 C.ar    
  15 C15            5.7334   -12.3833    -0.1027 C.2     
  16 N16            6.8615   -13.0622    -0.1168 N.2     
  17 N17            6.6263   -14.3246    -0.1157 N.2     
  18 N18            5.3565   -14.5452    -0.1012 N.2     
  19 N19            4.7244   -13.2895    -0.0866 N.pl3   
  20 C20            1.2754     2.1522     0.0014 C.3     
  21 C21            1.6989     2.4224    -1.4437 C.3     
  22 C22            3.0106     3.2099    -1.4520 C.3     
  23 N23           -3.4727     2.2388     0.0479 N.pl3   
  24 C24           -2.9636     3.5085     0.0509 C.2     
  25 C25           -1.6219     3.4639     0.0416 C.2     
  26 C26           -4.8988     1.9036     0.0596 C.3     
  27 C27            2.5612    -2.6553    -0.0366 C.3     
  28 C28            2.5055    -4.1843    -0.0442 C.3     
  29 O29            5.2015    -6.8004    -0.0839 O.3     
  30 C30           -5.3527     1.6556     1.4995 C.3     
  31 C31           -5.1186     2.9175     2.3325 C.3     
  32 C32           -6.8421     1.3056     1.5117 C.3     
  33 C33           -4.5513     0.4959     2.0943 C.3     
  34 C34            3.8726    -6.2754    -0.0685 C.3     
  35 C35            3.9283    -4.7464    -0.0608 C.3     
  36 H36           -1.1652    -1.8018     0.0023 H       
  37 H37           -3.3221    -0.6355     0.0290 H       
  38 H38            0.6201    -2.4423     0.8731 H       
  39 H39            0.6032    -2.4328    -0.9068 H       
  40 H40            7.4727    -8.0999    -0.1170 H       
  41 H41            7.7120   -10.5466    -0.1234 H       
  42 H42            3.4436   -10.9534    -0.0738 H       
  43 H43            3.2165    -8.5055    -0.0681 H       
  44 H44            3.7713   -13.1099    -0.0734 H       
  45 H45            1.1338     3.0995     0.5217 H       
  46 H46            2.0498     1.5734     0.5048 H       
  47 H47            1.8405     1.4752    -1.9640 H       
  48 H48            0.9244     3.0012    -1.9471 H       
  49 H49            3.3123     3.4025    -2.4816 H       
  50 H50            2.8690     4.1572    -0.9317 H       
  51 H51            3.7850     2.6312    -0.9487 H       
  52 H52           -3.5537     4.4130     0.0622 H       
  53 H53           -0.9512     4.3104     0.0418 H       
  54 H54           -5.4697     2.7298    -0.3642 H       
  55 H55           -5.0656     1.0046    -0.5338 H       
  56 H56            3.0795    -2.3062    -0.9296 H       
  57 H57            3.0964    -2.3157     0.8502 H       
  58 H58            1.9872    -4.5334     0.8488 H       
  59 H59            1.9703    -4.5239    -0.9310 H       
  60 H60           -5.6895     3.7437     1.9087 H       
  61 H61           -5.4419     2.7408     3.3583 H       
  62 H62           -4.0575     3.1669     2.3238 H       
  63 H63           -7.0089     0.4066     0.9183 H       
  64 H64           -7.1654     1.1289     2.5375 H       
  65 H65           -7.4130     2.1318     1.0879 H       
  66 H66           -3.4903     0.7453     2.0857 H       
  67 H67           -4.8747     0.3193     3.1202 H       
  68 H68           -4.7181    -0.4030     1.5009 H       
  69 H69            3.3374    -6.6150    -0.9552 H       
  70 H70            3.3543    -6.6246     0.8246 H       
  71 H71            4.4466    -4.3973    -0.9539 H       
  72 H72            4.4635    -4.4068     0.8260 H       
@<TRIPOS>BOND
   1    1    2 ar
   2    1   20 1
   3    1    6 ar
   4    2    3 ar
   5    2    7 1
   6    3    4 ar
   7    3   36 1
   8    4    5 ar
   9    4   37 1
  10    5    6 ar
  11    5   23 1
  12    6   25 1
  13    7    8 1
  14    8   27 1
  15    8   38 1
  16    8   39 1
  17    9   10 ar
  18    9   14 ar
  19    9   29 1
  20   10   11 ar
  21   10   40 1
  22   11   12 ar
  23   11   41 1
  24   12   13 ar
  25   12   15 1
  26   13   14 ar
  27   13   42 1
  28   14   43 1
  29   15   16 2
  30   15   19 1
  31   16   17 1
  32   17   18 2
  33   18   19 1
  34   19   44 1
  35   20   21 1
  36   20   45 1
  37   20   46 1
  38   21   22 1
  39   21   47 1
  40   21   48 1
  41   22   49 1
  42   22   50 1
  43   22   51 1
  44   23   24 1
  45   23   26 1
  46   24   25 2
  47   24   52 1
  48   25   53 1
  49   26   30 1
  50   26   54 1
  51   26   55 1
  52   27   28 1
  53   27   56 1
  54   27   57 1
  55   28   35 1
  56   28   58 1
  57   28   59 1
  58   29   34 1
  59   30   31 1
  60   30   32 1
  61   30   33 1
  62   31   60 1
  63   31   61 1
  64   31   62 1
  65   32   63 1
  66   32   64 1
  67   32   65 1
  68   33   66 1
  69   33   67 1
  70   33   68 1
  71   34   35 1
  72   34   69 1
  73   34   70 1
  74   35   71 1
  75   35   72 1

#	End of record

