#	Name: ASD03092040
#	Creating user name:	WinNT
#	Creation time:	15. 06. 2019 20:31

#	Modifying user name:	WinNT
#	Modification time:	15. 06. 2019 20:31

#	Program:	/corina/corina34_cracker 3.40 0067  02.08.2006

@<TRIPOS>MOLECULE
ASD03092040
  40   42    0    0    0
SMALL
NO_CHARGES


@<TRIPOS>ATOM
   1 N1             0.1304     1.3389     0.0445 N.am    
   2 C2            -0.0087    -0.0237    -0.0090 C.2     
   3 C3            -1.3440    -0.2949    -0.0534 C.2     
   4 C4            -2.0322     0.9287    -0.0264 C.2     
   5 N5            -1.1528     1.9004     0.0380 N.2     
   6 C6             1.2938     2.0171     0.0993 C.2     
   7 N7             1.2929     3.3632     0.0336 N.am    
   8 N8            -3.4205     1.0851    -0.0572 N.pl3   
   9 C9            -3.9845     2.3557     0.0939 C.ar    
  10 C10           -5.2388     2.6270    -0.4370 C.ar    
  11 C11           -5.7957     3.8843    -0.2864 C.ar    
  12 C12           -5.1024     4.8732     0.3940 C.ar    
  13 C13           -3.8503     4.6039     0.9244 C.ar    
  14 C14           -3.2933     3.3459     0.7799 C.ar    
  15 F15           -7.0157     4.1487    -0.8031 F       
  16 C16            1.0874    -1.0163    -0.0174 C.ar    
  17 C17            0.9636    -2.2304     0.6677 C.ar    
  18 C18            2.0107    -3.1277     0.6328 C.ar    
  19 N19            3.1159    -2.8536    -0.0336 N.ar    
  20 C20            3.2737    -1.7214    -0.6927 C.ar    
  21 C21            2.2754    -0.7703    -0.7159 C.ar    
  22 C22            2.5576     4.1003     0.0932 C.3     
  23 C23            4.5604    -1.4665    -1.4348 C.3     
  24 O24            2.3436     1.4147     0.2080 O.2     
  25 F25           -5.6473     6.1008     0.5400 F       
  26 F26           -3.1758     5.5690     1.5868 F       
  27 H27           -1.7926    -1.2762    -0.1009 H       
  28 H28            0.4550     3.8440    -0.0531 H       
  29 H29           -3.9930     0.3123    -0.1834 H       
  30 H30           -5.7790     1.8568    -0.9675 H       
  31 H31           -2.3179     3.1362     1.1934 H       
  32 H32            0.0621    -2.4610     1.2158 H       
  33 H33            1.9248    -4.0673     1.1584 H       
  34 H34            2.4115     0.1542    -1.2574 H       
  35 H35            2.3583     5.1698     0.0260 H       
  36 H36            3.0608     3.8830     1.0354 H       
  37 H37            3.1947     3.7966    -0.7374 H       
  38 H38            4.4713    -1.8393    -2.4552 H       
  39 H39            4.7618    -0.3955    -1.4555 H       
  40 H40            5.3787    -1.9804    -0.9303 H       
@<TRIPOS>BOND
   1    1    2 1
   2    1    6 am
   3    1    5 1
   4    2    3 2
   5    2   16 1
   6    3    4 1
   7    3   27 1
   8    4    5 2
   9    4    8 1
  10    6    7 am
  11    6   24 2
  12    7   22 1
  13    7   28 1
  14    8    9 1
  15    8   29 1
  16    9   10 ar
  17    9   14 ar
  18   10   11 ar
  19   10   30 1
  20   11   12 ar
  21   11   15 1
  22   12   13 ar
  23   12   25 1
  24   13   14 ar
  25   13   26 1
  26   14   31 1
  27   16   17 ar
  28   16   21 ar
  29   17   18 ar
  30   17   32 1
  31   18   19 ar
  32   18   33 1
  33   19   20 ar
  34   20   21 ar
  35   20   23 1
  36   21   34 1
  37   22   35 1
  38   22   36 1
  39   22   37 1
  40   23   38 1
  41   23   39 1
  42   23   40 1

#	End of record

