#	Name: ASD03730002
#	Creating user name:	WinNT
#	Creation time:	15. 06. 2019 20:43

#	Modifying user name:	WinNT
#	Modification time:	15. 06. 2019 20:43

#	Program:	/corina/corina34_cracker 3.40 0067  02.08.2006

@<TRIPOS>MOLECULE
ASD03730002
  81   81    0    0    0
SMALL
NO_CHARGES


@<TRIPOS>ATOM
   1 C1             4.5266     2.2942     4.3156 C.3     
   2 C2             3.7278     1.0809     3.9246 C.2     
   3 N3             4.1228    -0.1458     4.3868 N.am    
   4 C4             3.1723    -1.2487     4.1162 C.3     
   5 C5             3.5862    -1.9542     2.8392 C.2     
   6 O6             4.7970    -2.4688     2.7516 O.3     
   7 C7             5.2921    -3.4672     1.8699 C.3     
   8 N8             5.7288     2.4162     3.4842 N.am    
   9 C9             5.6393     2.3718     2.1454 C.2     
  10 C10            6.8205     2.5953     1.2346 C.3     
  11 N11            6.9225     1.4220     0.3342 N.am    
  12 C12            7.7028     0.3935     0.7690 C.2     
  13 C13            7.6475    -0.9194     0.0263 C.3     
  14 C14            6.4223    -1.6823     0.4782 C.2     
  15 C15            6.5620    -3.0178     1.1459 C.3     
  16 C16            4.2910    -4.0212     0.9006 C.2     
  17 C17            3.8430    -5.2637     1.0457 C.2     
  18 C18            3.0011    -5.8686     0.0018 C.2     
  19 C19            3.4732    -6.0126    -1.2318 C.2     
  20 C20            2.6987    -6.8139    -2.2463 C.3     
  21 C21            3.6684     3.5518     4.1705 C.3     
  22 C22            2.4426     3.4405     5.0794 C.3     
  23 C23            4.4900     4.7790     4.5705 C.3     
  24 O24            2.7452     1.1839     3.2181 O.2     
  25 O25            2.7705    -1.9876     1.9449 O.2     
  26 C26            3.7931    -3.1688    -0.2380 C.3     
  27 C27            1.6033    -6.3250     0.3317 C.3     
  28 C28            1.3450    -6.1465    -2.4974 C.3     
  29 C29            3.4871    -6.8769    -3.5560 C.3     
  30 C30            2.4777    -8.2317    -1.7153 C.3     
  31 O31            8.4316     0.5227     1.7258 O.2     
  32 C32            5.2523    -1.1362     0.2483 C.2     
  33 C33            7.7035    -2.9705     2.1723 C.3     
  34 C34            6.5732     3.8523     0.3907 C.3     
  35 O35            4.5602     2.1301     1.6244 O.2     
  36 C36            7.0188     2.5844     4.1658 C.3     
  37 H37            4.8321     2.1929     5.3635 H       
  38 H38            4.9628    -0.2802     4.8603 H       
  39 H39            3.1892    -1.9657     4.9396 H       
  40 H40            2.1611    -0.8623     3.9999 H       
  41 H41            5.6060    -4.3373     2.5019 H       
  42 H42            7.7494     2.7076     1.7787 H       
  43 H43            6.4601     1.4012    -0.5217 H       
  44 H44            7.5591    -0.7158    -1.0454 H       
  45 H45            8.5504    -1.4868     0.2050 H       
  46 H46            6.8128    -3.7683     0.3870 H       
  47 H47            4.0969    -5.8295     1.9299 H       
  48 H48            4.4121    -5.5554    -1.5075 H       
  49 H49            3.3446     3.6532     3.1347 H       
  50 H50            2.7664     3.3391     6.1152 H       
  51 H51            1.8310     4.3367     4.9760 H       
  52 H52            1.8573     2.5662     4.7945 H       
  53 H53            5.3632     4.8583     3.9229 H       
  54 H54            3.8784     5.6752     4.4670 H       
  55 H55            4.8138     4.6776     5.6063 H       
  56 H56            4.6427    -2.7785    -0.7983 H       
  57 H57            3.1691    -3.7720    -0.8975 H       
  58 H58            3.2072    -2.3394     0.1582 H       
  59 H59            0.9965    -5.4639     0.6115 H       
  60 H60            1.1646    -6.8110    -0.5397 H       
  61 H61            1.6379    -7.0303     1.1621 H       
  62 H62            1.5007    -5.1715    -2.9590 H       
  63 H63            0.7493    -6.7722    -3.1620 H       
  64 H64            0.8207    -6.0206    -1.5501 H       
  65 H65            4.4515    -7.3523    -3.3771 H       
  66 H66            2.9269    -7.4564    -4.2897 H       
  67 H67            3.6445    -5.8668    -3.9343 H       
  68 H68            1.9325    -8.1857    -0.7726 H       
  69 H69            1.9012    -8.8056    -2.4408 H       
  70 H70            3.4419    -8.7138    -1.5543 H       
  71 H71            5.1774    -0.2690    -0.3910 H       
  72 H72            4.3637    -1.5537     0.6984 H       
  73 H73            7.8467    -3.9618     2.6023 H       
  74 H74            8.6221    -2.6520     1.6796 H       
  75 H75            7.4517    -2.2642     2.9634 H       
  76 H76            6.4493     4.7128     1.0481 H       
  77 H77            7.4237     4.0194    -0.2702 H       
  78 H78            5.6707     3.7177    -0.2056 H       
  79 H79            7.4582     1.6057     4.3587 H       
  80 H80            7.6904     3.1661     3.5343 H       
  81 H81            6.8653     3.1063     5.1104 H       
@<TRIPOS>BOND
   1    1    2 1
   2    1    8 1
   3    1   21 1
   4    1   37 1
   5    2    3 am
   6    2   24 2
   7    3    4 1
   8    3   38 1
   9    4    5 1
  10    4   39 1
  11    4   40 1
  12    5    6 1
  13    5   25 2
  14    6    7 1
  15    7   15 1
  16    7   16 1
  17    7   41 1
  18    8    9 am
  19    8   36 1
  20    9   10 1
  21    9   35 2
  22   10   11 1
  23   10   34 1
  24   10   42 1
  25   11   12 am
  26   11   43 1
  27   12   13 1
  28   12   31 2
  29   13   14 1
  30   13   44 1
  31   13   45 1
  32   14   15 1
  33   14   32 2
  34   15   33 1
  35   15   46 1
  36   16   17 2
  37   16   26 1
  38   17   18 1
  39   17   47 1
  40   18   19 2
  41   18   27 1
  42   19   20 1
  43   19   48 1
  44   20   28 1
  45   20   29 1
  46   20   30 1
  47   21   22 1
  48   21   23 1
  49   21   49 1
  50   22   50 1
  51   22   51 1
  52   22   52 1
  53   23   53 1
  54   23   54 1
  55   23   55 1
  56   26   56 1
  57   26   57 1
  58   26   58 1
  59   27   59 1
  60   27   60 1
  61   27   61 1
  62   28   62 1
  63   28   63 1
  64   28   64 1
  65   29   65 1
  66   29   66 1
  67   29   67 1
  68   30   68 1
  69   30   69 1
  70   30   70 1
  71   32   71 1
  72   32   72 1
  73   33   73 1
  74   33   74 1
  75   33   75 1
  76   34   76 1
  77   34   77 1
  78   34   78 1
  79   36   79 1
  80   36   80 1
  81   36   81 1

#	End of record

