#	Name: ASD01883371
#	Creating user name:	WinNT
#	Creation time:	15. 06. 2019 19:46

#	Modifying user name:	WinNT
#	Modification time:	15. 06. 2019 19:46

#	Program:	/corina/corina34_cracker 3.40 0067  02.08.2006

@<TRIPOS>MOLECULE
ASD01883371
  62   64    0    0    0
SMALL
NO_CHARGES


@<TRIPOS>ATOM
   1 N1            -0.2972     1.9839    -0.3808 N.am    
   2 C2            -0.9002     1.8232     0.8118 C.2     
   3 C3            -2.0392     0.9908     0.9200 C.2     
   4 C4            -2.5162     0.3464    -0.2339 C.2     
   5 C5            -1.8427     0.5540    -1.4519 C.2     
   6 C6            -0.7626     1.3642    -1.4965 C.2     
   7 O7            -0.4652     2.3940     1.7977 O.2     
   8 C8            -2.6928     0.8082     2.1810 C.1     
   9 N9            -3.2113     0.6634     3.1814 N.1     
  10 C10            0.8810     2.8491    -0.4787 C.3     
  11 C11            2.1438     2.0207    -0.2339 C.3     
  12 C12            3.3742     2.9242    -0.3361 C.3     
  13 N13           -3.6211    -0.4729    -0.1740 N.pl3   
  14 C14           -4.9376     0.0618     0.2058 C.3     
  15 C15           -5.9610    -0.3687    -0.8503 C.3     
  16 N16           -5.9067    -1.8275    -1.0141 N.3     
  17 C17           -4.5957    -2.2589    -1.5170 C.3     
  18 C18           -3.5175    -1.9047    -0.4941 C.3     
  19 C19            4.6260     2.1246     0.0307 C.3     
  20 C20            3.5049     3.4478    -1.7678 C.3     
  21 C21           -6.9877    -2.2996    -1.8897 C.3     
  22 C22           -6.8418    -3.8061    -2.1134 C.3     
  23 O23           -7.0088    -4.4906    -0.8702 O.3     
  24 C24           -6.9084    -5.8457    -0.8936 C.ar    
  25 C25           -7.0597    -6.5739     0.2772 C.ar    
  26 C26           -6.9571    -7.9515     0.2507 C.ar    
  27 C27           -6.7038    -8.6041    -0.9414 C.ar    
  28 C28           -6.5521    -7.8804    -2.1100 C.ar    
  29 C29           -6.6599    -6.5035    -2.0898 C.ar    
  30 C30           -7.1209    -8.7433     1.5224 C.3     
  31 F31           -8.4681    -9.0805     1.6915 F       
  32 F32           -6.3539    -9.9108     1.4470 F       
  33 F33           -6.6929    -7.9735     2.6094 F       
  34 H34           -2.1913     0.0686    -2.3515 H       
  35 H35           -0.2538     1.5160    -2.4370 H       
  36 H36            0.9245     3.2924    -1.4735 H       
  37 H37            0.8144     3.6396     0.2688 H       
  38 H38            2.1002     1.5773     0.7609 H       
  39 H39            2.2103     1.2302    -0.9814 H       
  40 H40            3.2659     3.7645     0.3496 H       
  41 H41           -5.2269    -0.3348     1.1791 H       
  42 H42           -4.8921     1.1500     0.2495 H       
  43 H43           -6.9605    -0.0757    -0.5290 H       
  44 H44           -5.7281     0.1128    -1.8000 H       
  45 H45           -4.6050    -3.3368    -1.6791 H       
  46 H46           -4.3817    -1.7511    -2.4574 H       
  47 H47           -2.5332    -2.1180    -0.9108 H       
  48 H48           -3.6682    -2.4886     0.4139 H       
  49 H49            4.7343     1.2843    -0.6550 H       
  50 H50            5.5026     2.7683    -0.0421 H       
  51 H51            4.5329     1.7516     1.0507 H       
  52 H52            2.6131     4.0175    -2.0291 H       
  53 H53            4.3815     4.0915    -1.8406 H       
  54 H54            3.6132     2.6075    -2.4535 H       
  55 H55           -7.9504    -2.0933    -1.4219 H       
  56 H56           -6.9311    -1.7828    -2.8477 H       
  57 H57           -7.6008    -4.1438    -2.8190 H       
  58 H58           -5.8514    -4.0194    -2.5154 H       
  59 H59           -7.2572    -6.0645     1.2088 H       
  60 H60           -6.6240    -9.6810    -0.9601 H       
  61 H61           -6.3539    -8.3925    -3.0399 H       
  62 H62           -6.5417    -5.9387    -3.0028 H       
@<TRIPOS>BOND
   1    1    2 am
   2    1   10 1
   3    1    6 1
   4    2    3 1
   5    2    7 2
   6    3    4 2
   7    3    8 1
   8    4    5 1
   9    4   13 1
  10    5    6 2
  11    5   34 1
  12    6   35 1
  13    8    9 3
  14   10   11 1
  15   10   36 1
  16   10   37 1
  17   11   12 1
  18   11   38 1
  19   11   39 1
  20   12   19 1
  21   12   20 1
  22   12   40 1
  23   13   14 1
  24   13   18 1
  25   14   15 1
  26   14   41 1
  27   14   42 1
  28   15   16 1
  29   15   43 1
  30   15   44 1
  31   16   17 1
  32   16   21 1
  33   17   18 1
  34   17   45 1
  35   17   46 1
  36   18   47 1
  37   18   48 1
  38   19   49 1
  39   19   50 1
  40   19   51 1
  41   20   52 1
  42   20   53 1
  43   20   54 1
  44   21   22 1
  45   21   55 1
  46   21   56 1
  47   22   23 1
  48   22   57 1
  49   22   58 1
  50   23   24 1
  51   24   25 ar
  52   24   29 ar
  53   25   26 ar
  54   25   59 1
  55   26   27 ar
  56   26   30 1
  57   27   28 ar
  58   27   60 1
  59   28   29 ar
  60   28   61 1
  61   29   62 1
  62   30   31 1
  63   30   32 1
  64   30   33 1

#	End of record

