#	Name: ASD01813006
#	Creating user name:	WinNT
#	Creation time:	15. 06. 2019 19:29

#	Modifying user name:	WinNT
#	Modification time:	15. 06. 2019 19:29

#	Program:	/corina/corina34_cracker 3.40 0067  02.08.2006

@<TRIPOS>MOLECULE
ASD01813006
  44   47    0    0    0
SMALL
NO_CHARGES


@<TRIPOS>ATOM
   1 N1             0.0027     1.3184    -0.2223 N.ar    
   2 C2             0.0319     0.0058    -0.3459 C.ar    
   3 C3             1.2340    -0.6843    -0.3681 C.ar    
   4 C4             2.4113     0.0205    -0.2592 C.ar    
   5 C5             2.3614     1.4132    -0.1292 C.ar    
   6 C6             1.1073     2.0395    -0.1145 C.ar    
   7 C7             3.8682    -0.3580    -0.2433 C.3     
   8 N8             4.6152     0.8976    -0.0980 N.am    
   9 C9             3.7395     1.9163    -0.0327 C.2     
  10 C10            6.0736     1.0205    -0.0346 C.3     
  11 C11            6.6239     1.1964    -1.4264 C.ar    
  12 O12            1.0259     3.3855     0.0100 O.3     
  13 O13            4.0443     3.0872     0.0883 O.2     
  14 C14            6.5802     2.4388    -2.0359 C.ar    
  15 C15            7.0862     2.6002    -3.3144 C.ar    
  16 C16            7.6353     1.5192    -3.9817 C.ar    
  17 C17            7.6779     0.2773    -3.3701 C.ar    
  18 C18            7.1773     0.1186    -2.0919 C.ar    
  19 C19           -0.2021     3.9617    -0.0802 C.ar    
  20 C20           -1.0089     4.0615     1.0469 C.ar    
  21 C21           -0.6498     4.4560    -1.2957 C.ar    
  22 C22           -1.8984     5.0419    -1.3851 C.ar    
  23 C23           -2.7017     5.1361    -0.2642 C.ar    
  24 C24           -2.2573     4.6487     0.9514 C.ar    
  25 F25           -0.5744     3.5852     2.2341 F       
  26 F26            8.1290     1.6751    -5.2296 F       
  27 C27           -4.0623     5.7760    -0.3657 C.3     
  28 C28           -5.0642     4.7491    -0.6953 C.1     
  29 N29           -5.8373     3.9566    -0.9497 N.1     
  30 F30            6.0436     3.4931    -1.3835 F       
  31 H31           -0.8959    -0.5406    -0.4309 H       
  32 H32            1.2466    -1.7595    -0.4691 H       
  33 H33            4.0751    -1.0170     0.5999 H       
  34 H34            4.1382    -0.8488    -1.1784 H       
  35 H35            6.3393     1.8855     0.5732 H       
  36 H36            6.4951     0.1197     0.4116 H       
  37 H37            7.0522     3.5688    -3.7908 H       
  38 H38            8.1063    -0.5664    -3.8906 H       
  39 H39            7.2147    -0.8492    -1.6141 H       
  40 H40           -0.0230     4.3837    -2.1722 H       
  41 H41           -2.2469     5.4268    -2.3321 H       
  42 H42           -2.8853     4.7269     1.8265 H       
  43 H43           -4.3176     6.2401     0.5870 H       
  44 H44           -4.0494     6.5352    -1.1477 H       
@<TRIPOS>BOND
   1    1    2 ar
   2    1    6 ar
   3    2    3 ar
   4    2   31 1
   5    3    4 ar
   6    3   32 1
   7    4    7 1
   8    4    5 ar
   9    5    6 ar
  10    5    9 1
  11    6   12 1
  12    7    8 1
  13    7   33 1
  14    7   34 1
  15    8    9 am
  16    8   10 1
  17    9   13 2
  18   10   11 1
  19   10   35 1
  20   10   36 1
  21   11   14 ar
  22   11   18 ar
  23   12   19 1
  24   14   15 ar
  25   14   30 1
  26   15   16 ar
  27   15   37 1
  28   16   17 ar
  29   16   26 1
  30   17   18 ar
  31   17   38 1
  32   18   39 1
  33   19   21 ar
  34   19   20 ar
  35   20   24 ar
  36   20   25 1
  37   21   22 ar
  38   21   40 1
  39   22   23 ar
  40   22   41 1
  41   23   24 ar
  42   23   27 1
  43   24   42 1
  44   27   28 1
  45   27   43 1
  46   27   44 1
  47   28   29 3

#	End of record

