#	Name: ASD04910522
#	Creating user name:	WinNT
#	Creation time:	15. 06. 2019 20:56

#	Modifying user name:	WinNT
#	Modification time:	15. 06. 2019 20:56

#	Program:	/corina/corina34_cracker 3.40 0067  02.08.2006

@<TRIPOS>MOLECULE
ASD04910522
  20   21    0    0    0
SMALL
NO_CHARGES


@<TRIPOS>ATOM
   1 C1            -0.0168     1.3852     0.0097 C.ar    
   2 C2             0.0021    -0.0041     0.0020 C.ar    
   3 C3             1.2204    -0.6608    -0.0131 C.ar    
   4 C4             2.3819     0.0990    -0.0201 C.ar    
   5 C5             2.2882     1.4770    -0.0118 C.ar    
   6 N6             1.1125     2.0747     0.0026 N.ar    
   7 N7             3.7070    -0.5605    -0.0358 N.pl3   
   8 O8             3.7822    -1.7762    -0.0426 O.2     
   9 O9             4.7222     0.1125    -0.0419 O.2     
  10 N10           -1.2406     2.0611     0.0191 N.pl3   
  11 N11           -2.5104     1.4693     0.0223 N.2     
  12 C12           -3.4068     2.4221     0.0324 C.2     
  13 C13           -2.7416     3.6538     0.0359 C.2     
  14 C14           -1.4107     3.4092     0.0327 C.2     
  15 I15           -3.6470     5.5430     0.0512 I       
  16 H16           -0.9214    -0.5640     0.0082 H       
  17 H17            1.2662    -1.7398    -0.0190 H       
  18 H18            3.1890     2.0727    -0.0168 H       
  19 H19           -4.4777     2.2822     0.0366 H       
  20 H20           -0.6259     4.1511     0.0380 H       
@<TRIPOS>BOND
   1    1    2 ar
   2    1    6 ar
   3    1   10 1
   4    2    3 ar
   5    2   16 1
   6    3    4 ar
   7    3   17 1
   8    4    5 ar
   9    4    7 1
  10    5    6 ar
  11    5   18 1
  12    7    8 2
  13    7    9 2
  14   10   11 1
  15   10   14 1
  16   11   12 2
  17   12   13 1
  18   12   19 1
  19   13   14 2
  20   13   15 1
  21   14   20 1

#	End of record

