#	Name: ASD01918610
#	Creating user name:	WinNT
#	Creation time:	15. 06. 2019 20:11

#	Modifying user name:	WinNT
#	Modification time:	15. 06. 2019 20:11

#	Program:	/corina/corina34_cracker 3.40 0067  02.08.2006

@<TRIPOS>MOLECULE
ASD01918610
  39   41    0    0    0
SMALL
NO_CHARGES


@<TRIPOS>ATOM
   1 F1             0.0088    -0.0040    -0.0006 F       
   2 C2            -0.0117     1.3469     0.0080 C.ar    
   3 C3             0.0636     2.0470    -1.1835 C.ar    
   4 C4             0.0428     3.4284    -1.1772 C.ar    
   5 C5            -0.0542     4.1156     0.0251 C.ar    
   6 C6            -0.1302     3.4132     1.2206 C.ar    
   7 C7            -0.1140     2.0307     1.2106 C.ar    
   8 F8            -0.1930     1.3458     2.3725 F       
   9 N9            -0.0749     5.5165     0.0324 N.am    
  10 C10            1.0943     6.2122     0.1172 C.2     
  11 C11            1.0595     7.5673     0.1232 C.2     
  12 C12           -0.1856     8.2181     0.0415 C.2     
  13 O13           -0.2476     9.5684     0.0452 O.3     
  14 C14           -1.5462    10.1585    -0.0405 C.3     
  15 C15           -1.4160    11.6829    -0.0226 C.3     
  16 O16           -0.7259    12.1158    -1.1966 O.3     
  17 C17           -0.5253    13.4526    -1.3368 C.ar    
  18 C18           -0.9783    14.3291    -0.3616 C.ar    
  19 C19           -0.7728    15.6875    -0.5061 C.ar    
  20 C20           -0.1166    16.1737    -1.6218 C.ar    
  21 C21            0.3354    15.3022    -2.5954 C.ar    
  22 C22            0.1378    13.9425    -2.4526 C.ar    
  23 N23           -1.2963     7.5013    -0.0393 N.2     
  24 C24           -1.2486     6.1698    -0.0499 C.2     
  25 O25           -2.2857     5.5327    -0.1306 O.2     
  26 H26            0.1390     1.5129    -2.1192 H       
  27 H27            0.1023     3.9736    -2.1076 H       
  28 H28           -0.2053     3.9462     2.1569 H       
  29 H29            2.0375     5.6898     0.1792 H       
  30 H30            1.9735     8.1389     0.1900 H       
  31 H31           -2.0270     9.8458    -0.9674 H       
  32 H32           -2.1489     9.8354     0.8083 H       
  33 H33           -2.4088    12.1321     0.0017 H       
  34 H34           -0.8568    11.9894     0.8614 H       
  35 H35           -1.4915    13.9499     0.5098 H       
  36 H36           -1.1252    16.3703     0.2528 H       
  37 H37            0.0427    17.2361    -1.7332 H       
  38 H38            0.8473    15.6845    -3.4662 H       
  39 H39            0.4950    13.2618    -3.2112 H       
@<TRIPOS>BOND
   1    1    2 1
   2    2    7 ar
   3    2    3 ar
   4    3    4 ar
   5    3   26 1
   6    4    5 ar
   7    4   27 1
   8    5    6 ar
   9    5    9 1
  10    6    7 ar
  11    6   28 1
  12    7    8 1
  13    9   24 am
  14    9   10 1
  15   10   11 2
  16   10   29 1
  17   11   12 1
  18   11   30 1
  19   12   13 1
  20   12   23 2
  21   13   14 1
  22   14   15 1
  23   14   31 1
  24   14   32 1
  25   15   16 1
  26   15   33 1
  27   15   34 1
  28   16   17 1
  29   17   22 ar
  30   17   18 ar
  31   18   19 ar
  32   18   35 1
  33   19   20 ar
  34   19   36 1
  35   20   21 ar
  36   20   37 1
  37   21   22 ar
  38   21   38 1
  39   22   39 1
  40   23   24 1
  41   24   25 2

#	End of record

