#	Name: ASD01903317
#	Creating user name:	WinNT
#	Creation time:	15. 06. 2019 19:54

#	Modifying user name:	WinNT
#	Modification time:	15. 06. 2019 19:54

#	Program:	/corina/corina34_cracker 3.40 0067  02.08.2006

@<TRIPOS>MOLECULE
ASD01903317
  29   32    0    0    0
SMALL
NO_CHARGES


@<TRIPOS>ATOM
   1 N1            -0.0111     0.9658     0.0074 N.pl3   
   2 H2             0.0416    -0.0027     0.0033 H       
   3 C3             1.1506     1.7236    -0.0085 C.2     
   4 C4            -1.2519     1.5950     0.0232 C.ar    
   5 N5            -1.3268     2.9157     0.1242 N.ar    
   6 C6            -2.5080     3.5100     0.1390 C.ar    
   7 C7            -3.6636     2.7576     0.0499 C.ar    
   8 N8            -3.5937     1.4405    -0.0506 N.ar    
   9 C9            -2.4191     0.8404    -0.0727 C.ar    
  10 S10            2.7867     1.0799     0.0960 S.3     
  11 C11            3.4383     2.7073     0.0042 C.2     
  12 C12            2.3948     3.5814    -0.1087 C.2     
  13 N13            1.2009     3.0162    -0.1081 N.2     
  14 C14            4.8844     3.1243     0.0522 C.3     
  15 C15            5.1283     4.3929    -0.7667 C.3     
  16 C16            4.0285     5.3942    -0.5426 C.2     
  17 C17            2.7350     5.0304    -0.2439 C.2     
  18 N18            4.0582     6.7332    -0.5827 N.pl3   
  19 N19            2.7631     7.2094    -0.3213 N.2     
  20 C20            1.9707     6.1814    -0.1197 C.2     
  21 H21           -2.5696     4.5851     0.2212 H       
  22 H22           -4.6266     3.2463     0.0626 H       
  23 H23           -2.3626    -0.2350    -0.1547 H       
  24 H24            5.1678     3.3091     1.0884 H       
  25 H25            5.5010     2.3187    -0.3465 H       
  26 H26            6.0802     4.8334    -0.4703 H       
  27 H27            5.1677     4.1344    -1.8249 H       
  28 H28            4.8395     7.2795    -0.7614 H       
  29 H29            0.9147     6.2244     0.1026 H       
@<TRIPOS>BOND
   1    1    2 1
   2    1    3 1
   3    1    4 1
   4    3   10 1
   5    3   13 2
   6    4    5 ar
   7    4    9 ar
   8    5    6 ar
   9    6    7 ar
  10    6   21 1
  11    7    8 ar
  12    7   22 1
  13    8    9 ar
  14    9   23 1
  15   10   11 1
  16   11   12 2
  17   11   14 1
  18   12   13 1
  19   12   17 1
  20   14   15 1
  21   14   24 1
  22   14   25 1
  23   15   16 1
  24   15   26 1
  25   15   27 1
  26   16   17 2
  27   16   18 1
  28   17   20 1
  29   18   19 1
  30   18   28 1
  31   19   20 2
  32   20   29 1

#	End of record

