#	Name: ASD02500784
#	Creating user name:	WinNT
#	Creation time:	15. 06. 2019 20:23

#	Modifying user name:	WinNT
#	Modification time:	15. 06. 2019 20:23

#	Program:	/corina/corina34_cracker 3.40 0067  02.08.2006

@<TRIPOS>MOLECULE
ASD02500784
  51   54    0    0    0
SMALL
NO_CHARGES


@<TRIPOS>ATOM
   1 N1             0.1205     1.8023     0.3748 N.am    
   2 C2             0.6078     0.4232     0.2314 C.3     
   3 C3             1.3570     0.3043    -1.1016 C.3     
   4 N4             2.3206     1.4097    -1.1990 N.am    
   5 C5             1.8333     2.7888    -1.0555 C.3     
   6 C6             1.0841     2.9077     0.2775 C.3     
   7 C7            -0.5776    -0.5440     0.2422 C.3     
   8 S8             3.9268     1.1068    -1.4650 S.o2    
   9 O9             4.6352     2.2346    -0.9696 O.2     
  10 O10            4.1648    -0.2198    -1.0147 O.2     
  11 O11            4.7519     1.0316    -7.2999 O.3     
  12 C12            4.5616     1.0636    -5.9526 C.ar    
  13 C13            4.6885     2.2530    -5.2442 C.ar    
  14 O14            5.0011     3.4138    -5.8824 O.3     
  15 C15            5.5543     3.2960    -7.1977 C.3     
  16 C16            4.7074     2.2875    -7.9861 C.3     
  17 C17            4.4945     2.2620    -3.8713 C.ar    
  18 C18            4.1727     1.0916    -3.2097 C.ar    
  19 C19            4.0441    -0.0904    -3.9143 C.ar    
  20 C20            4.2379    -0.1066    -5.2829 C.ar    
  21 S21           -1.4866     2.1056     0.6346 S.o2    
  22 O22           -1.6783     3.4918     0.3881 O.2     
  23 O23           -2.2030     1.0878    -0.0512 O.2     
  24 C24           -1.7930     1.8586     2.3521 C.ar    
  25 C25           -1.2610     2.7336     3.2834 C.ar    
  26 C26           -1.5024     2.5385     4.6329 C.ar    
  27 C27           -2.2742     1.4705     5.0500 C.ar    
  28 C28           -2.8059     0.5962     4.1210 C.ar    
  29 C29           -2.5705     0.7926     2.7707 C.ar    
  30 F30           -3.0954    -0.0587     1.8624 F       
  31 F31           -0.5062     3.7773     2.8760 F       
  32 H32            1.2837     0.1867     1.0532 H       
  33 H33            1.8870    -0.6474    -1.1397 H       
  34 H34            0.6473     0.3640    -1.9267 H       
  35 H35            2.6778     3.4779    -1.0632 H       
  36 H36            1.1575     3.0253    -1.8774 H       
  37 H37            0.5541     3.8594     0.3156 H       
  38 H38            1.7938     2.8481     1.1026 H       
  39 H39           -1.1561    -0.4199    -0.6732 H       
  40 H40           -0.2102    -1.5684     0.3038 H       
  41 H41           -1.2110    -0.3328     1.1037 H       
  42 H42            5.5292     4.2654    -7.6953 H       
  43 H43            6.5831     2.9416    -7.1334 H       
  44 H44            5.1140     2.1720    -8.9908 H       
  45 H45            3.6771     2.6384    -8.0440 H       
  46 H46            4.5947     3.1843    -3.3184 H       
  47 H47            3.7920    -1.0030    -3.3947 H       
  48 H48            4.1367    -1.0316    -5.8311 H       
  49 H49           -1.0872     3.2208     5.3597 H       
  50 H50           -2.4617     1.3189     6.1028 H       
  51 H51           -3.4086    -0.2382     4.4482 H       
@<TRIPOS>BOND
   1    1    2 1
   2    1    6 1
   3    1   21 am
   4    2    3 1
   5    2    7 1
   6    2   32 1
   7    3    4 1
   8    3   33 1
   9    3   34 1
  10    4    5 1
  11    4    8 am
  12    5    6 1
  13    5   35 1
  14    5   36 1
  15    6   37 1
  16    6   38 1
  17    7   39 1
  18    7   40 1
  19    7   41 1
  20    8    9 2
  21    8   10 2
  22    8   18 1
  23   11   12 1
  24   11   16 1
  25   12   13 ar
  26   12   20 ar
  27   13   14 1
  28   13   17 ar
  29   14   15 1
  30   15   16 1
  31   15   42 1
  32   15   43 1
  33   16   44 1
  34   16   45 1
  35   17   18 ar
  36   17   46 1
  37   18   19 ar
  38   19   20 ar
  39   19   47 1
  40   20   48 1
  41   21   22 2
  42   21   23 2
  43   21   24 1
  44   24   25 ar
  45   24   29 ar
  46   25   26 ar
  47   25   31 1
  48   26   27 ar
  49   26   49 1
  50   27   28 ar
  51   27   50 1
  52   28   29 ar
  53   28   51 1
  54   29   30 1

#	End of record

