#	Name: ASD00310341
#	Creating user name:	WinNT
#	Creation time:	15. 06. 2019 18:34

#	Modifying user name:	WinNT
#	Modification time:	15. 06. 2019 18:34

#	Program:	/corina/corina34_cracker 3.40 0067  02.08.2006

@<TRIPOS>MOLECULE
ASD00310341
  47   50    0    0    0
SMALL
NO_CHARGES


@<TRIPOS>ATOM
   1 N1            -0.0171     1.2182     0.1432 N.pl3   
   2 N2             0.0077    -0.0649     0.1224 N.2     
   3 C3             1.2373    -0.5333     0.0877 C.2     
   4 C4             2.1256     0.6377     0.0865 C.ar    
   5 C5             3.5012     0.8366     0.0590 C.ar    
   6 C6             4.0011     2.1318     0.0684 C.ar    
   7 C7             3.1237     3.2233     0.1056 C.ar    
   8 C8             1.7722     3.0317     0.1326 C.ar    
   9 C9             1.2500     1.7412     0.1233 C.ar    
  10 C10            1.6423    -1.9484     0.0568 C.2     
  11 O11            2.8211    -2.2426     0.0264 O.2     
  12 O12            0.7057    -2.9177     0.0622 O.3     
  13 Cl13           3.7620     4.8377     0.1180 Cl      
  14 C14            5.4666     2.3603     0.0395 C.ar    
  15 C15            6.0164     3.2487    -0.8835 C.ar    
  16 C16            7.3786     3.4599    -0.9083 C.ar    
  17 C17            8.2036     2.7874    -0.0142 C.ar    
  18 C18            7.6574     1.9011     0.9069 C.ar    
  19 C19            6.2952     1.6913     0.9390 C.ar    
  20 N20            9.5827     3.0021    -0.0418 N.3     
  21 C21           10.2616     2.1958     0.9815 C.3     
  22 C22           11.7783     2.3194     0.8012 C.3     
  23 N23           12.1336     3.7466     0.7974 N.am    
  24 C24           11.3983     4.6443    -0.1063 C.3     
  25 C25            9.8965     4.4292     0.1096 C.3     
  26 C26           13.1068     4.2194     1.6010 C.2     
  27 O27           13.6324     3.4870     2.4124 O.2     
  28 C28           13.5420     5.6580     1.4913 C.3     
  29 H29           -0.8282     1.7497     0.1659 H       
  30 H30            4.1741    -0.0077     0.0311 H       
  31 H31            1.1074     3.8823     0.1615 H       
  32 H32            1.0199    -3.8320     0.0411 H       
  33 H33            5.3758     3.7709    -1.5787 H       
  34 H34            7.8049     4.1481    -1.6232 H       
  35 H35            8.3003     1.3794     1.6004 H       
  36 H36            5.8708     1.0060     1.6577 H       
  37 H37            9.9825     2.5552     1.9720 H       
  38 H38            9.9667     1.1517     0.8765 H       
  39 H39           12.2869     1.8176     1.6244 H       
  40 H40           12.0727     1.8662    -0.1454 H       
  41 H41           11.6557     5.6797     0.1168 H       
  42 H42           11.6561     4.4146    -1.1402 H       
  43 H43            9.3369     5.0049    -0.6276 H       
  44 H44            9.6225     4.7575     1.1123 H       
  45 H45           13.0325     6.1286     0.6505 H       
  46 H46           13.2886     6.1853     2.4110 H       
  47 H47           14.6196     5.7006     1.3332 H       
@<TRIPOS>BOND
   1    1    2 1
   2    1    9 1
   3    1   29 1
   4    2    3 2
   5    3    4 1
   6    3   10 1
   7    4    5 ar
   8    4    9 ar
   9    5    6 ar
  10    5   30 1
  11    6    7 ar
  12    6   14 1
  13    7    8 ar
  14    7   13 1
  15    8    9 ar
  16    8   31 1
  17   10   11 2
  18   10   12 1
  19   12   32 1
  20   14   15 ar
  21   14   19 ar
  22   15   16 ar
  23   15   33 1
  24   16   17 ar
  25   16   34 1
  26   17   18 ar
  27   17   20 1
  28   18   19 ar
  29   18   35 1
  30   19   36 1
  31   20   21 1
  32   20   25 1
  33   21   22 1
  34   21   37 1
  35   21   38 1
  36   22   23 1
  37   22   39 1
  38   22   40 1
  39   23   24 1
  40   23   26 am
  41   24   25 1
  42   24   41 1
  43   24   42 1
  44   25   43 1
  45   25   44 1
  46   26   27 2
  47   26   28 1
  48   28   45 1
  49   28   46 1
  50   28   47 1

#	End of record

