#	Name: ASD02560074
#	Creating user name:	WinNT
#	Creation time:	15. 06. 2019 20:24

#	Modifying user name:	WinNT
#	Modification time:	15. 06. 2019 20:24

#	Program:	/corina/corina34_cracker 3.40 0067  02.08.2006

@<TRIPOS>MOLECULE
ASD02560074
  42   44    0    0    0
SMALL
NO_CHARGES


@<TRIPOS>ATOM
   1 C1             4.2838     1.4164     3.6387 C.ar    
   2 C2             4.3057     0.0327     3.6290 C.ar    
   3 C3             4.1151    -0.6605     2.4466 C.ar    
   4 C4             3.9022     0.0245     1.2685 C.ar    
   5 C5             3.8789     1.4209     1.2709 C.ar    
   6 C6             4.0715     2.1140     2.4679 C.ar    
   7 C7             3.6518     2.1617     0.0124 C.2     
   8 C8             3.5304     3.6308     0.0334 C.ar    
   9 O9             3.5652     1.5595    -1.0404 O.2     
  10 C10            2.2771     4.2347    -0.1023 C.ar    
  11 C11            2.1709     5.6093    -0.0818 C.ar    
  12 C12            3.3023     6.3957     0.0725 C.ar    
  13 C13            4.5464     5.8116     0.2075 C.ar    
  14 C14            4.6714     4.4309     0.1955 C.ar    
  15 O15            5.8931     3.8562     0.3285 O.3     
  16 Cl16           0.6140     6.3584    -0.2504 Cl      
  17 C17            7.0104     4.7345     0.4775 C.3     
  18 C18            8.2731     3.9229     0.6107 C.2     
  19 N19            9.4600     4.5431     0.7629 N.am    
  20 C20           10.6188     3.7912     0.9856 C.ar    
  21 C21           10.7750     2.5552     0.3720 C.ar    
  22 C22           11.9202     1.8157     0.5935 C.ar    
  23 C23           12.9106     2.3046     1.4256 C.ar    
  24 C24           12.7581     3.5350     2.0381 C.ar    
  25 C25           11.6178     4.2819     1.8162 C.ar    
  26 O26            8.2213     2.7115     0.5811 O.2     
  27 H27            4.4287     1.9510     4.5657 H       
  28 H28            4.4726    -0.5086     4.5485 H       
  29 H29            4.1334    -1.7403     2.4462 H       
  30 H30            3.7543    -0.5177     0.3463 H       
  31 H31            4.0543     3.1939     2.4769 H       
  32 H32            1.3934     3.6256    -0.2234 H       
  33 H33            3.2102     7.4717     0.0867 H       
  34 H34            5.4228     6.4312     0.3273 H       
  35 H35            7.0842     5.3802    -0.3976 H       
  36 H36            6.8756     5.3459     1.3697 H       
  37 H37            9.5108     5.5107     0.7180 H       
  38 H38           10.0016     2.1726    -0.2775 H       
  39 H39           12.0423     0.8545     0.1166 H       
  40 H40           13.8049     1.7241     1.5978 H       
  41 H41           13.5334     3.9141     2.6874 H       
  42 H42           11.4993     5.2428     2.2948 H       
@<TRIPOS>BOND
   1    1    2 ar
   2    1    6 ar
   3    1   27 1
   4    2    3 ar
   5    2   28 1
   6    3    4 ar
   7    3   29 1
   8    4    5 ar
   9    4   30 1
  10    5    6 ar
  11    5    7 1
  12    6   31 1
  13    7    8 1
  14    7    9 2
  15    8   10 ar
  16    8   14 ar
  17   10   11 ar
  18   10   32 1
  19   11   12 ar
  20   11   16 1
  21   12   13 ar
  22   12   33 1
  23   13   14 ar
  24   13   34 1
  25   14   15 1
  26   15   17 1
  27   17   18 1
  28   17   35 1
  29   17   36 1
  30   18   19 am
  31   18   26 2
  32   19   20 1
  33   19   37 1
  34   20   21 ar
  35   20   25 ar
  36   21   22 ar
  37   21   38 1
  38   22   23 ar
  39   22   39 1
  40   23   24 ar
  41   23   40 1
  42   24   25 ar
  43   24   41 1
  44   25   42 1

#	End of record

