#	Name: ASD05380054
#	Creating user name:	WinNT
#	Creation time:	15. 06. 2019 20:59

#	Modifying user name:	WinNT
#	Modification time:	15. 06. 2019 20:59

#	Program:	/corina/corina34_cracker 3.40 0067  02.08.2006

@<TRIPOS>MOLECULE
ASD05380054
  62   66    0    0    0
SMALL
NO_CHARGES


@<TRIPOS>ATOM
   1 C1            -0.1582     1.6203    -0.4740 C.ar    
   2 C2             0.0697     0.3011    -0.0220 C.ar    
   3 C3             0.8955     2.3746    -0.9854 C.ar    
   4 C4             2.1575     1.8244    -1.0462 C.ar    
   5 C5             2.3848     0.5283    -0.6033 C.ar    
   6 C6             1.3573    -0.2337    -0.0936 C.ar    
   7 N7            -0.9714    -0.4143     0.4725 N.2     
   8 C8            -2.1686     0.0836     0.5398 C.2     
   9 N9            -2.4789     1.3427     0.1281 N.am    
  10 C10           -1.5238     2.1565    -0.3791 C.2     
  11 C11           -3.7975     1.8027     0.2352 C.ar    
  12 C12           -4.6928     1.5974    -0.8062 C.ar    
  13 C13           -4.2138     2.4600     1.3854 C.ar    
  14 C14           -5.5148     2.9120     1.4882 C.ar    
  15 C15           -6.4027     2.7103     0.4473 C.ar    
  16 C16           -5.9924     2.0518    -0.6974 C.ar    
  17 C17           -3.2706    -0.7771     1.1019 C.3     
  18 N18           -3.0525    -2.1704     0.7053 N.pl3   
  19 C19           -4.1227    -3.0447     0.6323 C.ar    
  20 N20           -5.3548    -2.6368     0.9187 N.ar    
  21 O21           -1.7871     3.2852    -0.7512 O.2     
  22 C22           -3.9330    -4.3829     0.2482 C.ar    
  23 C23           -5.0580    -5.2231     0.1926 C.ar    
  24 N24           -6.2510    -4.7264     0.5025 N.ar    
  25 C25           -6.3819    -3.4639     0.8519 C.ar    
  26 N26           -2.8600    -5.1282    -0.1104 N.2     
  27 C27           -3.2453    -6.3425    -0.3761 C.2     
  28 N28           -4.5932    -6.4516    -0.2039 N.pl3   
  29 C29           -3.2689    -0.6751     2.6285 C.3     
  30 C30            0.6569     3.7818    -1.4691 C.3     
  31 O31           -1.9727    -1.0116     3.1269 O.3     
  32 C32           -1.8626    -0.9475     4.5503 C.3     
  33 C33           -2.8569    -1.9231     5.1831 C.3     
  34 C34           -0.4405    -1.3252     4.9694 C.3     
  35 C35           -2.1727     0.4744     5.0222 C.3     
  36 H36            2.9767     2.4063    -1.4421 H       
  37 H37            3.3801     0.1126    -0.6590 H       
  38 H38            1.5464    -1.2404     0.2486 H       
  39 H39           -4.3730     1.0832    -1.7005 H       
  40 H40           -3.5211     2.6173     2.1989 H       
  41 H41           -5.8392     3.4233     2.3825 H       
  42 H42           -7.4197     3.0640     0.5304 H       
  43 H43           -6.6881     1.8961    -1.5087 H       
  44 H44           -4.2310    -0.4356     0.7159 H       
  45 H45           -2.1579    -2.4802     0.4938 H       
  46 H46           -7.3663    -3.0909     1.0934 H       
  47 H47           -2.5934    -7.1454    -0.6872 H       
  48 H48           -5.1259    -7.2513    -0.3365 H       
  49 H49           -3.5190     0.3435     2.9248 H       
  50 H50           -4.0065    -1.3645     3.0394 H       
  51 H51            0.6867     4.4670    -0.6220 H       
  52 H52            1.4313     4.0559    -2.1855 H       
  53 H53           -0.3197     3.8401    -1.9495 H       
  54 H54           -2.6360    -2.9362     4.8468 H       
  55 H55           -2.7730    -1.8743     6.2688 H       
  56 H56           -3.8701    -1.6540     4.8845 H       
  57 H57            0.2679    -0.6302     4.5185 H       
  58 H58           -0.3565    -1.2764     6.0550 H       
  59 H59           -0.2196    -2.3383     4.6331 H       
  60 H60           -3.1859     0.7435     4.7237 H       
  61 H61           -2.0888     0.5233     6.1079 H       
  62 H62           -1.4644     1.1695     4.5714 H       
@<TRIPOS>BOND
   1    1    2 ar
   2    1    3 ar
   3    1   10 1
   4    2    7 1
   5    2    6 ar
   6    3    4 ar
   7    3   30 1
   8    4    5 ar
   9    4   36 1
  10    5    6 ar
  11    5   37 1
  12    6   38 1
  13    7    8 2
  14    8    9 1
  15    8   17 1
  16    9   10 am
  17    9   11 1
  18   10   21 2
  19   11   12 ar
  20   11   13 ar
  21   12   16 ar
  22   12   39 1
  23   13   14 ar
  24   13   40 1
  25   14   15 ar
  26   14   41 1
  27   15   16 ar
  28   15   42 1
  29   16   43 1
  30   17   18 1
  31   17   29 1
  32   17   44 1
  33   18   19 1
  34   18   45 1
  35   19   20 ar
  36   19   22 ar
  37   20   25 ar
  38   22   23 ar
  39   22   26 1
  40   23   24 ar
  41   23   28 1
  42   24   25 ar
  43   25   46 1
  44   26   27 2
  45   27   28 1
  46   27   47 1
  47   28   48 1
  48   29   31 1
  49   29   49 1
  50   29   50 1
  51   30   51 1
  52   30   52 1
  53   30   53 1
  54   31   32 1
  55   32   33 1
  56   32   34 1
  57   32   35 1
  58   33   54 1
  59   33   55 1
  60   33   56 1
  61   34   57 1
  62   34   58 1
  63   34   59 1
  64   35   60 1
  65   35   61 1
  66   35   62 1

#	End of record

