#	Name: ASD07930524
#	Creating user name:	WinNT
#	Creation time:	15. 06. 2019 21:12

#	Modifying user name:	WinNT
#	Modification time:	15. 06. 2019 21:12

#	Program:	/corina/corina34_cracker 3.40 0067  02.08.2006

@<TRIPOS>MOLECULE
ASD07930524
  53   56    0    0    0
SMALL
NO_CHARGES


@<TRIPOS>ATOM
   1 C1            -0.0341     1.4581     0.0422 C.3     
   2 N2             0.7954    -0.4135    -2.1304 N.2     
   3 N3            -0.8903    -1.7836    -1.2686 N.pl3   
   4 C4            -0.9149    -2.8271    -0.2383 C.3     
   5 C5            -1.2299    -2.1885     1.1214 C.3     
   6 S6             0.0063    -0.8913     1.4433 S.o2    
   7 N7            -0.0139    -0.0067     0.0313 N.am    
   8 C8            -0.0111    -0.7261    -1.1553 C.2     
   9 C9             0.4501    -3.5154    -0.1756 C.3     
  10 C10           -1.9764    -3.8423    -0.5755 C.ar    
  11 C11           -2.8069    -3.6377    -1.6601 C.ar    
  12 C12           -3.7854    -4.5729    -1.9715 C.ar    
  13 C13           -3.9274    -5.7127    -1.1915 C.ar    
  14 C14           -3.0941    -5.9144    -0.1061 C.ar    
  15 C15           -2.1144    -4.9815     0.1987 C.ar    
  16 O16           -0.4574     0.0117     2.4376 O.2     
  17 O17            1.3142    -1.4441     1.5002 O.2     
  18 F18           -1.3009    -5.1793     1.2590 F       
  19 N19           -4.6275    -4.3664    -3.0698 N.am    
  20 C20           -5.0477    -5.4159    -3.8035 C.2     
  21 O21           -4.6188    -6.5309    -3.5719 O.2     
  22 C22           -6.0229    -5.2140    -4.8820 C.2     
  23 C23           -6.5164    -6.1940    -5.6839 C.2     
  24 F24           -3.2314    -7.0228     0.6541 F       
  25 O25           -6.5693    -4.0276    -5.2233 O.3     
  26 C26           -7.4275    -4.1735    -6.2518 C.ar    
  27 C27           -7.4454    -5.5374    -6.6015 C.ar    
  28 C28           -8.2255    -3.2823    -6.9570 C.ar    
  29 C29           -9.0217    -3.7415    -7.9911 C.ar    
  30 C30           -9.0317    -5.0927    -8.3331 C.ar    
  31 C31           -8.2571    -5.9838    -7.6486 C.ar    
  32 O32           -9.8012    -2.8676    -8.6792 O.3     
  33 C33          -10.6003    -3.4039    -9.7356 C.3     
  34 H34            0.9885     1.8356     0.0391 H       
  35 H35           -0.5580     1.8208    -0.8421 H       
  36 H36           -0.5477     1.8077     0.9377 H       
  37 H37            1.4072     0.3330    -2.0334 H       
  38 H38           -1.4882    -1.8388    -2.0304 H       
  39 H39           -2.2268    -1.7484     1.0986 H       
  40 H40           -1.1798    -2.9460     1.9036 H       
  41 H41            1.2166    -2.7805     0.0703 H       
  42 H42            0.4312    -4.2908     0.5902 H       
  43 H43            0.6750    -3.9653    -1.1427 H       
  44 H44           -2.6955    -2.7505    -2.2658 H       
  45 H45           -4.6880    -6.4409    -1.4318 H       
  46 H46           -4.9088    -3.4679    -3.3030 H       
  47 H47           -6.2714    -7.2453    -5.6502 H       
  48 H48           -8.2248    -2.2336    -6.6988 H       
  49 H49           -9.6588    -5.4371    -9.1422 H       
  50 H50           -8.2680    -7.0297    -7.9176 H       
  51 H51          -11.1726    -2.6016   -10.2014 H       
  52 H52           -9.9540    -3.8687   -10.4800 H       
  53 H53          -11.2839    -4.1503    -9.3310 H       
@<TRIPOS>BOND
   1    1    7 1
   2    1   34 1
   3    1   35 1
   4    1   36 1
   5    2    8 2
   6    2   37 1
   7    3    4 1
   8    3    8 1
   9    3   38 1
  10    4    5 1
  11    4    9 1
  12    4   10 1
  13    5    6 1
  14    5   39 1
  15    5   40 1
  16    6    7 am
  17    6   16 2
  18    6   17 2
  19    7    8 1
  20    9   41 1
  21    9   42 1
  22    9   43 1
  23   10   11 ar
  24   10   15 ar
  25   11   12 ar
  26   11   44 1
  27   12   13 ar
  28   12   19 1
  29   13   14 ar
  30   13   45 1
  31   14   15 ar
  32   14   24 1
  33   15   18 1
  34   19   20 am
  35   19   46 1
  36   20   21 2
  37   20   22 1
  38   22   23 2
  39   22   25 1
  40   23   27 1
  41   23   47 1
  42   25   26 1
  43   26   27 ar
  44   26   28 ar
  45   27   31 ar
  46   28   29 ar
  47   28   48 1
  48   29   30 ar
  49   29   32 1
  50   30   31 ar
  51   30   49 1
  52   31   50 1
  53   32   33 1
  54   33   51 1
  55   33   52 1
  56   33   53 1

#	End of record

