#	Name: ASD02039144
#	Creating user name:	WinNT
#	Creation time:	15. 06. 2019 20:17

#	Modifying user name:	WinNT
#	Modification time:	15. 06. 2019 20:17

#	Program:	/corina/corina34_cracker 3.40 0067  02.08.2006

@<TRIPOS>MOLECULE
ASD02039144
  39   42    0    0    0
SMALL
NO_CHARGES


@<TRIPOS>ATOM
   1 N1            -0.0266     1.3034    -0.1277 N.2     
   2 C2            -0.0023    -0.0009    -0.0588 C.2     
   3 N3             1.2943    -0.3776    -0.0646 N.2     
   4 C4             1.9837     0.7344    -0.1375 C.2     
   5 O5             1.1041     1.7400    -0.1735 O.3     
   6 C6             3.4854     0.8563    -0.1740 C.3     
   7 O7             3.9332     0.8232    -1.5306 O.3     
   8 C8             5.2727     0.9228    -1.7411 C.ar    
   9 N9            -1.1051    -0.8434     0.0085 N.pl3   
  10 C10           -2.3901    -0.3050     0.1292 C.ar    
  11 C11           -2.5565     1.0567     0.3467 C.ar    
  12 C12           -3.8266     1.5862     0.4651 C.ar    
  13 C13           -4.9333     0.7627     0.3678 C.ar    
  14 C14           -4.7725    -0.5946     0.1516 C.ar    
  15 C15           -3.5033    -1.1302     0.0260 C.ar    
  16 C16            6.1369     1.0500    -0.6565 C.ar    
  17 C17            7.4969     1.1517    -0.8507 C.ar    
  18 C18            8.0183     1.1277    -2.1396 C.ar    
  19 C19            7.1484     0.9993    -3.2389 C.ar    
  20 C20            5.7699     0.8916    -3.0286 C.ar    
  21 N21            9.3778     1.2293    -2.3551 N.am    
  22 C22            9.8843     1.2073    -3.6003 C.2     
  23 C23            9.0549     1.0808    -4.7352 C.2     
  24 C24            7.7108     0.9764    -4.5906 C.2     
  25 O25           11.0901     1.2994    -3.7530 O.2     
  26 Cl26          -6.1647    -1.6247     0.0307 Cl      
  27 Cl27          -3.3012    -2.8328    -0.2459 Cl      
  28 H28            3.7846     1.7988     0.2845 H       
  29 H29            3.9307     0.0272     0.3759 H       
  30 H30           -0.9836    -1.8051    -0.0283 H       
  31 H31           -1.6932     1.7010     0.4236 H       
  32 H32           -3.9557     2.6450     0.6342 H       
  33 H33           -5.9251     1.1797     0.4611 H       
  34 H34            5.7370     1.0695     0.3466 H       
  35 H35            8.1579     1.2503    -0.0023 H       
  36 H36            5.0981     0.7925    -3.8685 H       
  37 H37            9.9766     1.3181    -1.5972 H       
  38 H38            9.4925     1.0667    -5.7224 H       
  39 H39            7.0689     0.8786    -5.4536 H       
@<TRIPOS>BOND
   1    1    2 2
   2    1    5 1
   3    2    3 1
   4    2    9 1
   5    3    4 2
   6    4    5 1
   7    4    6 1
   8    6    7 1
   9    6   28 1
  10    6   29 1
  11    7    8 1
  12    8   16 ar
  13    8   20 ar
  14    9   10 1
  15    9   30 1
  16   10   11 ar
  17   10   15 ar
  18   11   12 ar
  19   11   31 1
  20   12   13 ar
  21   12   32 1
  22   13   14 ar
  23   13   33 1
  24   14   15 ar
  25   14   26 1
  26   15   27 1
  27   16   17 ar
  28   16   34 1
  29   17   18 ar
  30   17   35 1
  31   18   19 ar
  32   18   21 1
  33   19   20 ar
  34   19   24 1
  35   20   36 1
  36   21   22 am
  37   21   37 1
  38   22   23 1
  39   22   25 2
  40   23   24 2
  41   23   38 1
  42   24   39 1

#	End of record

