#	Name: ASD01900096
#	Creating user name:	WinNT
#	Creation time:	15. 06. 2019 19:51

#	Modifying user name:	WinNT
#	Modification time:	15. 06. 2019 19:51

#	Program:	/corina/corina34_cracker 3.40 0067  02.08.2006

@<TRIPOS>MOLECULE
ASD01900096
  25   27    0    0    0
SMALL
NO_CHARGES


@<TRIPOS>ATOM
   1 C1            -0.0102     1.3956     0.0823 C.ar    
   2 C2            -0.0099     0.0044    -0.1109 C.ar    
   3 C3             1.1830    -0.6427    -0.4372 C.ar    
   4 C4             2.3277     0.1243    -0.5576 C.ar    
   5 C5             2.2535     1.4925    -0.3529 C.ar    
   6 N6             1.1163     2.0812    -0.0457 N.ar    
   7 O7            -1.2764     1.7532     0.3773 O.3     
   8 N8            -2.1044     0.6081     0.3788 N.2     
   9 C9            -1.3919    -0.4486     0.1001 C.2     
  10 N10           -1.8543    -1.7546     0.0104 N.pl3   
  11 C11           -3.2211    -2.0216     0.1275 C.ar    
  12 C12           -4.1525    -1.0685    -0.2646 C.ar    
  13 C13           -5.5033    -1.3358    -0.1474 C.ar    
  14 C14           -5.9277    -2.5516     0.3606 C.ar    
  15 C15           -5.0025    -3.5014     0.7519 C.ar    
  16 C16           -3.6511    -3.2427     0.6309 C.ar    
  17 Cl17          -6.6687    -0.1459    -0.6369 Cl      
  18 H18            1.2115    -1.7113    -0.5909 H       
  19 H19            3.2705    -0.3391    -0.8084 H       
  20 H20            3.1485     2.0896    -0.4470 H       
  21 H21           -1.2287    -2.4818    -0.1336 H       
  22 H22           -3.8214    -0.1197    -0.6603 H       
  23 H23           -6.9838    -2.7584     0.4517 H       
  24 H24           -5.3369    -4.4487     1.1485 H       
  25 H25           -2.9292    -3.9873     0.9324 H       
@<TRIPOS>BOND
   1    1    2 ar
   2    1    6 ar
   3    1    7 1
   4    2    3 ar
   5    2    9 1
   6    3    4 ar
   7    3   18 1
   8    4    5 ar
   9    4   19 1
  10    5    6 ar
  11    5   20 1
  12    7    8 1
  13    8    9 2
  14    9   10 1
  15   10   11 1
  16   10   21 1
  17   11   12 ar
  18   11   16 ar
  19   12   13 ar
  20   12   22 1
  21   13   14 ar
  22   13   17 1
  23   14   15 ar
  24   14   23 1
  25   15   16 ar
  26   15   24 1
  27   16   25 1

#	End of record

