#	Name: ASD02500239
#	Creating user name:	WinNT
#	Creation time:	15. 06. 2019 20:22

#	Modifying user name:	WinNT
#	Modification time:	15. 06. 2019 20:22

#	Program:	/corina/corina34_cracker 3.40 0067  02.08.2006

@<TRIPOS>MOLECULE
ASD02500239
  63   67    0    0    0
SMALL
NO_CHARGES


@<TRIPOS>ATOM
   1 N1            -3.3309     5.4853     0.4349 N.ar    
   2 C2            -4.5082     6.0419     0.5845 C.ar    
   3 C3            -5.3430     5.7163     1.6516 C.ar    
   4 C4            -4.9403     4.7945     2.5754 C.ar    
   5 C5            -3.6756     4.1984     2.4112 C.ar    
   6 C6            -3.1939     3.2433     3.3204 C.ar    
   7 C7            -1.9648     2.6900     3.1270 C.ar    
   8 C8            -1.1778     3.0595     2.0384 C.ar    
   9 C9            -1.6136     3.9822     1.1377 C.ar    
  10 C10           -2.8768     4.5758     1.3032 C.ar    
  11 S11           -0.5975     4.4316    -0.2299 S.o2    
  12 O12           -0.5882     5.8519    -0.2732 O.2     
  13 O13            0.5843     3.6495    -0.1258 O.2     
  14 N14           -1.3728     3.9269    -1.6034 N.am    
  15 C15           -1.5723     2.5695    -1.8303 C.ar    
  16 C16           -2.8158     2.1132    -2.2508 C.ar    
  17 C17           -3.0142     0.7628    -2.4771 C.ar    
  18 C18           -1.9552    -0.1377    -2.2796 C.ar    
  19 C19           -0.7098     0.3373    -1.8562 C.ar    
  20 C20           -0.5231     1.6724    -1.6409 C.ar    
  21 O21           -4.2259     0.3110    -2.8873 O.3     
  22 C22           -5.2552     1.2860    -3.0664 C.3     
  23 C23           -2.1552    -1.5768    -2.5169 C.2     
  24 O24           -3.0544    -2.1676    -1.9494 O.2     
  25 N25           -1.3420    -2.2398    -3.3629 N.am    
  26 C26           -1.5873    -3.6530    -3.6828 C.3     
  27 C27           -1.6955    -3.7991    -5.2057 C.3     
  28 N28           -0.5479    -3.1215    -5.8252 N.am    
  29 C29           -0.3026    -1.7082    -5.5052 C.3     
  30 C30           -0.1977    -1.5606    -3.9867 C.3     
  31 C31            0.2653    -3.7844    -6.6712 C.2     
  32 C32            1.3557    -3.0638    -7.3671 C.ar    
  33 C33            1.0958    -1.9026    -8.1013 C.ar    
  34 C34            2.1429    -1.2620    -8.7349 C.ar    
  35 N35            3.3722    -1.7308    -8.6546 N.ar    
  36 C36            3.6623    -2.8213    -7.9739 C.ar    
  37 C37            2.6765    -3.5228    -7.3037 C.ar    
  38 O38            0.1036    -4.9734    -6.8629 O.2     
  39 Cl39           3.0701    -4.9539    -6.4033 Cl      
  40 H40           -4.8399     6.7726    -0.1383 H       
  41 H41           -6.3074     6.1927     1.7483 H       
  42 H42           -5.5744     4.5304     3.4088 H       
  43 H43           -3.7945     2.9493     4.1685 H       
  44 H44           -1.5950     1.9553     3.8269 H       
  45 H45           -0.2061     2.6067     1.9072 H       
  46 H46           -1.6879     4.5782    -2.2496 H       
  47 H47           -3.6260     2.8115    -2.4004 H       
  48 H48            0.1067    -0.3528    -1.7030 H       
  49 H49            0.4417     2.0347    -1.3179 H       
  50 H50           -5.4381     1.7988    -2.1221 H       
  51 H51           -4.9427     2.0103    -3.8186 H       
  52 H52           -6.1698     0.7925    -3.3950 H       
  53 H53           -0.7603    -4.2603    -3.3149 H       
  54 H54           -2.5180    -3.9773    -3.2172 H       
  55 H55           -1.6848    -4.8556    -5.4736 H       
  56 H56           -2.6217    -3.3407    -5.5523 H       
  57 H57            0.6281    -1.3839    -5.9708 H       
  58 H58           -1.1296    -1.1010    -5.8731 H       
  59 H59           -0.2108    -0.5034    -3.7216 H       
  60 H60            0.7306    -2.0155    -3.6409 H       
  61 H61            0.0913    -1.5124    -8.1722 H       
  62 H62            1.9515    -0.3646    -9.3045 H       
  63 H63            4.6839    -3.1696    -7.9354 H       
@<TRIPOS>BOND
   1    1    2 ar
   2    1   10 ar
   3    2    3 ar
   4    2   40 1
   5    3    4 ar
   6    3   41 1
   7    4    5 ar
   8    4   42 1
   9    5    6 ar
  10    5   10 ar
  11    6    7 ar
  12    6   43 1
  13    7    8 ar
  14    7   44 1
  15    8    9 ar
  16    8   45 1
  17    9   10 ar
  18    9   11 1
  19   11   12 2
  20   11   13 2
  21   11   14 am
  22   14   15 1
  23   14   46 1
  24   15   16 ar
  25   15   20 ar
  26   16   17 ar
  27   16   47 1
  28   17   18 ar
  29   17   21 1
  30   18   19 ar
  31   18   23 1
  32   19   20 ar
  33   19   48 1
  34   20   49 1
  35   21   22 1
  36   22   50 1
  37   22   51 1
  38   22   52 1
  39   23   24 2
  40   23   25 am
  41   25   26 1
  42   25   30 1
  43   26   27 1
  44   26   53 1
  45   26   54 1
  46   27   28 1
  47   27   55 1
  48   27   56 1
  49   28   29 1
  50   28   31 am
  51   29   30 1
  52   29   57 1
  53   29   58 1
  54   30   59 1
  55   30   60 1
  56   31   32 1
  57   31   38 2
  58   32   33 ar
  59   32   37 ar
  60   33   34 ar
  61   33   61 1
  62   34   35 ar
  63   34   62 1
  64   35   36 ar
  65   36   37 ar
  66   36   63 1
  67   37   39 1

#	End of record

