#	Name: ASD03081334
#	Creating user name:	WinNT
#	Creation time:	15. 06. 2019 20:27

#	Modifying user name:	WinNT
#	Modification time:	15. 06. 2019 20:27

#	Program:	/corina/corina34_cracker 3.40 0067  02.08.2006

@<TRIPOS>MOLECULE
ASD03081334
  32   35    0    0    0
SMALL
NO_CHARGES


@<TRIPOS>ATOM
   1 O1            -0.0162     1.3445     0.0094 O.3     
   2 C2             0.0021    -0.0041     0.0020 C.2     
   3 N3             1.2610    -0.3805    -0.0120 N.2     
   4 N4             2.0179     0.6599    -0.0137 N.2     
   5 C5             1.2725     1.7418    -0.0007 C.2     
   6 C6             0.8546     4.2024     0.0165 C.ar    
   7 C7             1.7572     3.1374     0.0021 C.ar    
   8 C8             3.1296     3.4145    -0.0090 C.ar    
   9 C9             3.5313     4.7387    -0.0053 C.ar    
  10 C10            2.5737     5.7367     0.0092 C.ar    
  11 N11            1.2867     5.4461     0.0199 N.ar    
  12 C12           -1.0000    -2.2685    -0.0002 C.ar    
  13 C13           -1.1763    -0.8942     0.0089 C.ar    
  14 C14           -2.4691    -0.3405     0.0252 C.ar    
  15 C15           -3.5676    -1.1379     0.0323 C.ar    
  16 C16           -3.4219    -2.5370     0.0234 C.ar    
  17 C17           -4.5440    -3.3824     0.0316 C.ar    
  18 C18           -4.3718    -4.7328     0.0236 C.ar    
  19 C19           -3.0962    -5.2940     0.0078 C.ar    
  20 C20           -1.9855    -4.5077    -0.0001 C.ar    
  21 C21           -2.1236    -3.1078     0.0069 C.ar    
  22 H22           -0.2071     4.0045     0.0207 H       
  23 H23            3.8560     2.6153    -0.0199 H       
  24 H24            4.5815     4.9903    -0.0133 H       
  25 H25            2.8847     6.7710     0.0121 H       
  26 H26           -0.0057    -2.6898    -0.0171 H       
  27 H27           -2.5894     0.7327     0.0324 H       
  28 H28           -4.5539    -0.6980     0.0451 H       
  29 H29           -5.5390    -2.9626     0.0446 H       
  30 H30           -5.2370    -5.3791     0.0299 H       
  31 H31           -2.9876    -6.3685     0.0020 H       
  32 H32           -1.0031    -4.9561    -0.0123 H       
@<TRIPOS>BOND
   1    1    2 1
   2    1    5 1
   3    2    3 2
   4    2   13 1
   5    3    4 1
   6    4    5 2
   7    5    7 1
   8    6    7 ar
   9    6   11 ar
  10    6   22 1
  11    7    8 ar
  12    8    9 ar
  13    8   23 1
  14    9   10 ar
  15    9   24 1
  16   10   11 ar
  17   10   25 1
  18   12   13 ar
  19   12   21 ar
  20   12   26 1
  21   13   14 ar
  22   14   15 ar
  23   14   27 1
  24   15   16 ar
  25   15   28 1
  26   16   17 ar
  27   16   21 ar
  28   17   18 ar
  29   17   29 1
  30   18   19 ar
  31   18   30 1
  32   19   20 ar
  33   19   31 1
  34   20   21 ar
  35   20   32 1

#	End of record

