#	Name: ASD06140003
#	Creating user name:	WinNT
#	Creation time:	15. 06. 2019 21:05

#	Modifying user name:	WinNT
#	Modification time:	15. 06. 2019 21:05

#	Program:	/corina/corina34_cracker 3.40 0067  02.08.2006

@<TRIPOS>MOLECULE
ASD06140003
  54   58    0    0    0
SMALL
NO_CHARGES


@<TRIPOS>ATOM
   1 C1            -0.0175     1.4009     0.0797 C.ar    
   2 C2            -0.1653     0.1993    -0.6238 C.ar    
   3 C3            -1.3492    -0.4993    -0.5468 C.ar    
   4 C4            -2.3965    -0.0138     0.2276 C.ar    
   5 C5            -2.2554     1.1787     0.9277 C.ar    
   6 C6            -1.0739     1.8825     0.8624 C.ar    
   7 C7             1.2434     2.1503     0.0017 C.2     
   8 C8             1.2234     3.5035    -0.0932 C.2     
   9 C9             0.0611     4.3700    -0.2959 C.2     
  10 S10            2.5992     4.6190     0.0082 S.3     
  11 C11            1.6243     6.0726    -0.2150 C.2     
  12 N12            0.3088     5.6736    -0.3672 N.am    
  13 O13           -1.0665     3.9225    -0.3938 O.2     
  14 C14           -0.7417     6.7039    -0.6139 C.3     
  15 C15           -0.2954     7.9635     0.1478 C.3     
  16 C16            1.0680     8.3912    -0.4067 C.3     
  17 O17            0.9245     8.7546    -1.7738 O.3     
  18 C18            0.1382     8.0025    -2.5848 C.ar    
  19 C19           -0.6912     7.0100    -2.0947 C.ar    
  20 N20            2.0367     7.3075    -0.2391 N.2     
  21 C21            1.5645     9.6058     0.3801 C.3     
  22 C22            0.1733     8.2490    -3.9550 C.ar    
  23 C23           -0.6179     7.5141    -4.8131 C.ar    
  24 C24           -1.4511     6.5286    -4.3161 C.ar    
  25 C25           -1.4864     6.2779    -2.9576 C.ar    
  26 C26           -1.2996     9.0677    -0.0604 C.2     
  27 O27           -2.2754     8.8755    -0.7465 O.2     
  28 O28           -1.1099    10.2649     0.5163 O.3     
  29 C29           -2.1178    11.2813     0.2722 C.3     
  30 C30           -1.7328    12.5677     1.0055 C.3     
  31 O31           -3.5619    -0.7068     0.3000 O.3     
  32 C32           -4.5973    -0.1518     1.1136 C.3     
  33 H33            0.6476    -0.1786    -1.2260 H       
  34 H34           -1.4645    -1.4260    -1.0893 H       
  35 H35           -3.0725     1.5517     1.5272 H       
  36 H36           -0.9652     2.8090     1.4067 H       
  37 H37            2.1863     1.6240     0.0200 H       
  38 H38           -1.7270     6.3645    -0.2943 H       
  39 H39           -0.2074     7.7398     1.2109 H       
  40 H40            1.6616     9.3416     1.4332 H       
  41 H41            2.5345     9.9178    -0.0071 H       
  42 H42            0.8513    10.4233     0.2749 H       
  43 H43            0.8220     9.0184    -4.3470 H       
  44 H44           -0.5870     7.7088    -5.8749 H       
  45 H45           -2.0730     5.9561    -4.9883 H       
  46 H46           -2.1369     5.5085    -2.5686 H       
  47 H47           -2.1830    11.4787    -0.7978 H       
  48 H48           -3.0833    10.9304     0.6365 H       
  49 H49           -1.6676    12.3703     2.0755 H       
  50 H50           -0.7673    12.9186     0.6413 H       
  51 H51           -2.4894    13.3307     0.8223 H       
  52 H52           -4.2443    -0.0641     2.1411 H       
  53 H53           -4.8662     0.8349     0.7364 H       
  54 H54           -5.4711    -0.8027     1.0839 H       
@<TRIPOS>BOND
   1    1    2 ar
   2    1    7 1
   3    1    6 ar
   4    2    3 ar
   5    2   33 1
   6    3    4 ar
   7    3   34 1
   8    4    5 ar
   9    4   31 1
  10    5    6 ar
  11    5   35 1
  12    6   36 1
  13    7    8 2
  14    7   37 1
  15    8    9 1
  16    8   10 1
  17    9   13 2
  18    9   12 am
  19   10   11 1
  20   11   12 1
  21   11   20 2
  22   12   14 1
  23   14   15 1
  24   14   19 1
  25   14   38 1
  26   15   16 1
  27   15   26 1
  28   15   39 1
  29   16   17 1
  30   16   21 1
  31   16   20 1
  32   17   18 1
  33   18   19 ar
  34   18   22 ar
  35   19   25 ar
  36   21   40 1
  37   21   41 1
  38   21   42 1
  39   22   23 ar
  40   22   43 1
  41   23   24 ar
  42   23   44 1
  43   24   25 ar
  44   24   45 1
  45   25   46 1
  46   26   27 2
  47   26   28 1
  48   28   29 1
  49   29   30 1
  50   29   47 1
  51   29   48 1
  52   30   49 1
  53   30   50 1
  54   30   51 1
  55   31   32 1
  56   32   52 1
  57   32   53 1
  58   32   54 1

#	End of record

