#	Name: ASD01510123
#	Creating user name:	WinNT
#	Creation time:	15. 06. 2019 19:21

#	Modifying user name:	WinNT
#	Modification time:	15. 06. 2019 19:21

#	Program:	/corina/corina34_cracker 3.40 0067  02.08.2006

@<TRIPOS>MOLECULE
ASD01510123
  68   72    0    0    0
SMALL
NO_CHARGES


@<TRIPOS>ATOM
   1 C1            -0.0998     1.4480     0.0132 C.3     
   2 N2            -0.0703    -0.0206     0.0051 N.3     
   3 C3             0.6397    -0.5396     1.1824 C.3     
   4 C4             0.5795    -2.0689     1.1780 C.3     
   5 N5             1.1816    -2.5767    -0.0627 N.3     
   6 C6             0.4716    -2.0577    -1.2400 C.3     
   7 C7             0.5318    -0.5284    -1.2356 C.3     
   8 C8             1.2095    -3.9631    -0.0703 C.ar    
   9 N9             0.7239    -4.6226     0.9694 N.ar    
  10 C10            0.7318    -5.9476     1.0003 C.ar    
  11 C11            1.2584    -6.6460    -0.0767 C.ar    
  12 C12            1.7635    -5.9168    -1.1597 C.ar    
  13 N13            1.7166    -4.5918    -1.1207 N.ar    
  14 O14            2.2886    -6.5555    -2.2345 O.3     
  15 C15            2.7825    -5.7381    -3.2974 C.3     
  16 C16            3.3233    -6.6159    -4.3965 C.ar    
  17 C17            2.4915    -7.0374    -5.4169 C.ar    
  18 C18            2.9876    -7.8427    -6.4250 C.ar    
  19 C19            4.3157    -8.2261    -6.4130 C.ar    
  20 C20            5.1477    -7.8038    -5.3931 C.ar    
  21 C21            4.6527    -6.9950    -4.3873 C.ar    
  22 S22            1.2912    -8.4077    -0.0808 S.3     
  23 C23            0.6968    -8.8190     1.5260 C.ar    
  24 C24           -0.6707    -8.9009     1.7624 C.ar    
  25 C25           -1.1371    -9.2229     3.0223 C.ar    
  26 C26           -0.2470    -9.4649     4.0509 C.ar    
  27 C27            1.1213    -9.3852     3.8215 C.ar    
  28 C28            1.5938    -9.0674     2.5568 C.ar    
  29 N29            2.0217    -9.6305     4.8642 N.am    
  30 C30            1.7137    -9.2576     6.1222 C.2     
  31 O31            0.6231    -8.7857     6.3650 O.2     
  32 C32            2.7244    -9.4271     7.2271 C.3     
  33 C33            3.7467    -8.2762     7.1839 C.3     
  34 C34            3.6292    -7.5801     8.5593 C.3     
  35 C35            3.0071    -8.6820     9.4534 C.3     
  36 N36            2.0500    -9.3593     8.5416 N.3     
  37 H37            0.9202     1.8320     0.0035 H       
  38 H38           -0.6311     1.8056    -0.8689 H       
  39 H39           -0.6106     1.7962     0.9109 H       
  40 H40            1.6803    -0.2165     1.1512 H       
  41 H41            0.1677    -0.1597     2.0885 H       
  42 H42            1.1303    -2.4570     2.0349 H       
  43 H43           -0.4598    -2.3921     1.2367 H       
  44 H44            0.9436    -2.4377    -2.1461 H       
  45 H45           -0.5690    -2.3808    -1.2088 H       
  46 H46           -0.0190    -0.1404    -2.0925 H       
  47 H47            1.5711    -0.2052    -1.2943 H       
  48 H48            0.3337    -6.4770     1.8533 H       
  49 H49            1.9725    -5.1229    -3.6892 H       
  50 H50            3.5781    -5.0948    -2.9215 H       
  51 H51            1.4539    -6.7379    -5.4263 H       
  52 H52            2.3375    -8.1726    -7.2219 H       
  53 H53            4.7031    -8.8558    -7.2002 H       
  54 H54            6.1852    -8.1036    -5.3835 H       
  55 H55            5.3027    -6.6651    -3.5904 H       
  56 H56           -1.3691    -8.7123     0.9605 H       
  57 H57           -2.1999    -9.2852     3.2037 H       
  58 H58           -0.6151    -9.7160     5.0347 H       
  59 H59            2.6568    -9.0052     2.3760 H       
  60 H60            2.8674   -10.0690     4.6816 H       
  61 H61            3.2366   -10.3830     7.1181 H       
  62 H62            4.7535    -8.6696     7.0438 H       
  63 H63            3.4976    -7.5787     6.3843 H       
  64 H64            4.6125    -7.2914     8.9307 H       
  65 H65            2.9694    -6.7146     8.4984 H       
  66 H66            3.7729    -9.3789     9.7939 H       
  67 H67            2.4837    -8.2396    10.3010 H       
  68 H68            1.1848    -8.8439     8.4780 H       
@<TRIPOS>BOND
   1    1    2 1
   2    1   37 1
   3    1   38 1
   4    1   39 1
   5    2    3 1
   6    2    7 1
   7    3    4 1
   8    3   40 1
   9    3   41 1
  10    4    5 1
  11    4   42 1
  12    4   43 1
  13    5    6 1
  14    5    8 1
  15    6    7 1
  16    6   44 1
  17    6   45 1
  18    7   46 1
  19    7   47 1
  20    8    9 ar
  21    8   13 ar
  22    9   10 ar
  23   10   11 ar
  24   10   48 1
  25   11   12 ar
  26   11   22 1
  27   12   13 ar
  28   12   14 1
  29   14   15 1
  30   15   16 1
  31   15   49 1
  32   15   50 1
  33   16   17 ar
  34   16   21 ar
  35   17   18 ar
  36   17   51 1
  37   18   19 ar
  38   18   52 1
  39   19   20 ar
  40   19   53 1
  41   20   21 ar
  42   20   54 1
  43   21   55 1
  44   22   23 1
  45   23   24 ar
  46   23   28 ar
  47   24   25 ar
  48   24   56 1
  49   25   26 ar
  50   25   57 1
  51   26   27 ar
  52   26   58 1
  53   27   28 ar
  54   27   29 1
  55   28   59 1
  56   29   30 am
  57   29   60 1
  58   30   31 2
  59   30   32 1
  60   32   33 1
  61   32   36 1
  62   32   61 1
  63   33   34 1
  64   33   62 1
  65   33   63 1
  66   34   35 1
  67   34   64 1
  68   34   65 1
  69   35   36 1
  70   35   66 1
  71   35   67 1
  72   36   68 1

#	End of record

