#	Name: ASD02038948
#	Creating user name:	WinNT
#	Creation time:	15. 06. 2019 20:17

#	Modifying user name:	WinNT
#	Modification time:	15. 06. 2019 20:17

#	Program:	/corina/corina34_cracker 3.40 0067  02.08.2006

@<TRIPOS>MOLECULE
ASD02038948
  39   41    0    0    0
SMALL
NO_CHARGES


@<TRIPOS>ATOM
   1 O1            -0.0164     1.3553     0.0095 O.3     
   2 C2             0.0469     0.0123     0.2111 C.ar    
   3 N3             1.1674     3.3360    -0.3381 N.am    
   4 C4             1.1449     1.9925    -0.2338 C.2     
   5 C5             1.0846     5.2456    -1.1789 C.3     
   6 C6             1.1871     6.7238    -0.7977 C.3     
   7 O7             1.9575     7.4170    -1.7815 O.3     
   8 C8             2.1455     8.7503    -1.5915 C.ar    
   9 C9             2.8836     9.4842    -2.5082 C.ar    
  10 C10            1.5944     9.3774    -0.4839 C.ar    
  11 C11            1.7854    10.7318    -0.2908 C.ar    
  12 C12            2.5286    11.4645    -1.2043 C.ar    
  13 C13            3.0746    10.8386    -2.3151 C.ar    
  14 O14            2.7159    12.7980    -1.0147 O.3     
  15 O15            2.1724     1.3560    -0.3593 O.2     
  16 C16            2.1914     4.3618    -0.5873 C.3     
  17 C17            0.1777     4.4210    -0.2592 C.3     
  18 C18            0.5014    -0.4874     1.4227 C.ar    
  19 C19           -0.3482    -0.8600    -0.7924 C.ar    
  20 C20           -0.2837    -2.2243    -0.5856 C.ar    
  21 C21            0.1745    -2.7209     0.6220 C.ar    
  22 C22            0.5646    -1.8523     1.6259 C.ar    
  23 Cl23           0.2537    -4.4358     0.8800 Cl      
  24 H24            0.9062     5.0862    -2.2423 H       
  25 H25            0.1878     7.1562    -0.7478 H       
  26 H26            1.6718     6.8156     0.1743 H       
  27 H27            3.3093     8.9967    -3.3728 H       
  28 H28            1.0157     8.8069     0.2274 H       
  29 H29            1.3557    11.2202     0.5713 H       
  30 H30            3.6536    11.4091    -3.0262 H       
  31 H31            3.5040    13.0149    -0.4980 H       
  32 H32            2.6302     4.7675     0.3242 H       
  33 H33            2.9413     4.0580    -1.3178 H       
  34 H34           -0.7812     4.1675    -0.7112 H       
  35 H35            0.0747     4.8427     0.7406 H       
  36 H36            0.8060     0.1903     2.2066 H       
  37 H37           -0.7065    -0.4727    -1.7348 H       
  38 H38           -0.5913    -2.9037    -1.3667 H       
  39 H39            0.9222    -2.2417     2.5677 H       
@<TRIPOS>BOND
   1    1    2 1
   2    1    4 1
   3    2   18 ar
   4    2   19 ar
   5    3    4 am
   6    3   16 1
   7    3   17 1
   8    4   15 2
   9    5    6 1
  10    5   17 1
  11    5   16 1
  12    5   24 1
  13    6    7 1
  14    6   25 1
  15    6   26 1
  16    7    8 1
  17    8    9 ar
  18    8   10 ar
  19    9   13 ar
  20    9   27 1
  21   10   11 ar
  22   10   28 1
  23   11   12 ar
  24   11   29 1
  25   12   13 ar
  26   12   14 1
  27   13   30 1
  28   14   31 1
  29   16   32 1
  30   16   33 1
  31   17   34 1
  32   17   35 1
  33   18   22 ar
  34   18   36 1
  35   19   20 ar
  36   19   37 1
  37   20   21 ar
  38   20   38 1
  39   21   22 ar
  40   21   23 1
  41   22   39 1

#	End of record

