#	Name: ASD01940230
#	Creating user name:	WinNT
#	Creation time:	15. 06. 2019 20:12

#	Modifying user name:	WinNT
#	Modification time:	15. 06. 2019 20:12

#	Program:	/corina/corina34_cracker 3.40 0067  02.08.2006

@<TRIPOS>MOLECULE
ASD01940230
  39   40    0    0    0
SMALL
NO_CHARGES


@<TRIPOS>ATOM
   1 F1             1.8802     1.5452     2.2255 F       
   2 C2             1.0431     2.1402     1.3479 C.ar    
   3 C3             1.3681     2.1850    -0.0014 C.ar    
   4 C4             0.5011     2.8002    -0.9031 C.ar    
   5 C5            -0.6815     3.3644    -0.4490 C.ar    
   6 C6            -0.9997     3.3172     0.8958 C.ar    
   7 C7            -0.1433     2.7014     1.7925 C.ar    
   8 N8             2.5648     1.6137    -0.4553 N.pl3   
   9 N9             0.8242     2.8487    -2.2657 N.am    
  10 C10            2.6054     0.2630    -0.8019 C.ar    
  11 C11            1.4435    -0.4999    -0.7582 C.ar    
  12 C12            1.4806    -1.8343    -1.1004 C.ar    
  13 C13            2.6860    -2.4201    -1.4912 C.ar    
  14 C14            3.8511    -1.6515    -1.5341 C.ar    
  15 C15            3.8070    -0.3167    -1.1959 C.ar    
  16 C16            5.0639     0.5134    -1.2420 C.3     
  17 F17           -0.4623     2.6524     3.1044 F       
  18 S18            0.4118     4.1749    -3.1677 S.o2    
  19 C19            1.2659     5.5558    -2.3590 C.3     
  20 O20            0.9771     3.9188    -4.4460 O.2     
  21 O21           -0.9944     4.2903    -2.9983 O.2     
  22 C22            2.7291    -3.8505    -1.8581 C.2     
  23 C23            1.6219    -4.5794    -1.8165 C.2     
  24 H24           -1.3544     3.8415    -1.1462 H       
  25 H25           -1.9212     3.7577     1.2470 H       
  26 H26            3.3647     2.1574    -0.5285 H       
  27 H27            1.2894     2.1055    -2.6806 H       
  28 H28            0.5114    -0.0463    -0.4555 H       
  29 H29            0.5780    -2.4264    -1.0659 H       
  30 H30            4.7851    -2.1021    -1.8356 H       
  31 H31            5.1714     0.9552    -2.2326 H       
  32 H32            5.0037     1.3054    -0.4955 H       
  33 H33            5.9255    -0.1199    -1.0311 H       
  34 H34            2.3407     5.3746    -2.3697 H       
  35 H35            1.0480     6.4806    -2.8931 H       
  36 H36            0.9222     5.6419    -1.3282 H       
  37 H37            3.6622    -4.3026    -2.1603 H       
  38 H38            0.6888    -4.1273    -1.5144 H       
  39 H39            1.6533    -5.6251    -2.0848 H       
@<TRIPOS>BOND
   1    1    2 1
   2    2    3 ar
   3    2    7 ar
   4    3    4 ar
   5    3    8 1
   6    4    5 ar
   7    4    9 1
   8    5    6 ar
   9    5   24 1
  10    6    7 ar
  11    6   25 1
  12    7   17 1
  13    8   10 1
  14    8   26 1
  15    9   18 am
  16    9   27 1
  17   10   11 ar
  18   10   15 ar
  19   11   12 ar
  20   11   28 1
  21   12   13 ar
  22   12   29 1
  23   13   14 ar
  24   13   22 1
  25   14   15 ar
  26   14   30 1
  27   15   16 1
  28   16   31 1
  29   16   32 1
  30   16   33 1
  31   18   19 1
  32   18   20 2
  33   18   21 2
  34   19   34 1
  35   19   35 1
  36   19   36 1
  37   22   23 2
  38   22   37 1
  39   23   38 1
  40   23   39 1

#	End of record

