#	Name: ASD01208962
#	Creating user name:	WinNT
#	Creation time:	15. 06. 2019 19:10

#	Modifying user name:	WinNT
#	Modification time:	15. 06. 2019 19:10

#	Program:	/corina/corina34_cracker 3.40 0067  02.08.2006

@<TRIPOS>MOLECULE
ASD01208962
  61   65    0    0    0
SMALL
NO_CHARGES


@<TRIPOS>ATOM
   1 C1            -2.1631     1.6101    -0.9625 C.3     
   2 C2            -2.1461     0.0854    -1.1085 C.3     
   3 C3            -1.4120    -0.2846    -2.4009 C.3     
   4 C4            -2.0977     0.4047    -3.5834 C.3     
   5 C5            -2.8199     2.2262    -2.2005 C.3     
   6 C6            -1.4213    -0.5353     0.0875 C.3     
   7 C7            -1.5299    -2.0597     0.0146 C.3     
   8 C8            -0.7065    -2.6752     1.1166 C.2     
   9 N9             0.6325    -2.5222     1.1230 N.am    
  10 C10            1.3997    -3.1724     2.0767 C.2     
  11 N11           -2.9311    -2.4575     0.1716 N.pl3   
  12 N12           -3.8365    -2.7130    -0.8663 N.2     
  13 C13           -4.9864    -3.0400    -0.3345 C.2     
  14 C14           -4.8504    -3.0033     1.0571 C.2     
  15 C15           -3.5760    -2.6482     1.3416 C.2     
  16 O16           -1.2488    -3.3081     1.9975 O.2     
  17 O17           -2.1068     1.8176    -3.3696 O.3     
  18 N18            2.6811    -3.0922     2.1681 N.2     
  19 C19            3.2863    -3.7855     3.1525 C.ar    
  20 C20            2.3889    -4.5071     3.9451 C.ar    
  21 S21            0.7596    -4.2174     3.3371 S.3     
  22 S22           -6.1132    -3.3632     2.2320 S.o2    
  23 C23           -6.0271    -5.0887     2.5781 C.ar    
  24 O24           -5.7477    -2.6946     3.4314 O.2     
  25 O25           -7.3514    -3.1482     1.5687 O.2     
  26 C26           -5.2251    -5.5480     3.6061 C.ar    
  27 C27           -5.1572    -6.9014     3.8781 C.ar    
  28 C28           -5.8920    -7.7966     3.1212 C.ar    
  29 C29           -6.6945    -7.3363     2.0925 C.ar    
  30 C30           -6.7660    -5.9821     1.8251 C.ar    
  31 Cl31          -5.8068    -9.4967     3.4619 Cl      
  32 C32            4.6617    -3.8663     3.4667 C.ar    
  33 C33            5.0562    -4.6448     4.5300 C.ar    
  34 C34            4.0995    -5.3331     5.2706 C.ar    
  35 N35            2.8203    -5.2469     4.9637 N.ar    
  36 O36            4.4879    -6.1015     6.3199 O.3     
  37 C37            3.4592    -6.7830     7.0407 C.3     
  38 H38           -2.7316     1.8846    -0.0739 H       
  39 H39           -1.1414     1.9786    -0.8707 H       
  40 H40           -3.1692    -0.2883    -1.1505 H       
  41 H41           -0.3751     0.0457    -2.3382 H       
  42 H42           -1.4432    -1.3651    -2.5411 H       
  43 H43           -1.5539     0.1794    -4.5008 H       
  44 H44           -3.1225     0.0436    -3.6702 H       
  45 H45           -3.8541     1.8890    -2.2692 H       
  46 H46           -2.7963     3.3131    -2.1216 H       
  47 H47           -0.3711    -0.2444     0.0667 H       
  48 H48           -1.8779    -0.1823     1.0122 H       
  49 H49           -1.1604    -2.4045    -0.9511 H       
  50 H50            1.0593    -1.9570     0.4603 H       
  51 H51           -5.8854    -3.2940    -0.8764 H       
  52 H52           -3.1528    -2.5310     2.3283 H       
  53 H53           -4.6512    -4.8492     4.1966 H       
  54 H54           -4.5303    -7.2602     4.6811 H       
  55 H55           -7.2684    -8.0346     1.5014 H       
  56 H56           -7.3924    -5.6227     1.0221 H       
  57 H57            5.3911    -3.3260     2.8815 H       
  58 H58            6.1020    -4.7219     4.7884 H       
  59 H59            2.7613    -6.0546     7.4536 H       
  60 H60            2.9273    -7.4546     6.3669 H       
  61 H61            3.9046    -7.3595     7.8515 H       
@<TRIPOS>BOND
   1    1    2 1
   2    1    5 1
   3    1   38 1
   4    1   39 1
   5    2    3 1
   6    2    6 1
   7    2   40 1
   8    3    4 1
   9    3   41 1
  10    3   42 1
  11    4   17 1
  12    4   43 1
  13    4   44 1
  14    5   17 1
  15    5   45 1
  16    5   46 1
  17    6    7 1
  18    6   47 1
  19    6   48 1
  20    7    8 1
  21    7   11 1
  22    7   49 1
  23    8    9 am
  24    8   16 2
  25    9   10 1
  26    9   50 1
  27   10   18 2
  28   10   21 1
  29   11   12 1
  30   11   15 1
  31   12   13 2
  32   13   14 1
  33   13   51 1
  34   14   15 2
  35   14   22 1
  36   15   52 1
  37   18   19 1
  38   19   20 ar
  39   19   32 ar
  40   20   21 1
  41   20   35 ar
  42   22   23 1
  43   22   24 2
  44   22   25 2
  45   23   26 ar
  46   23   30 ar
  47   26   27 ar
  48   26   53 1
  49   27   28 ar
  50   27   54 1
  51   28   29 ar
  52   28   31 1
  53   29   30 ar
  54   29   55 1
  55   30   56 1
  56   32   33 ar
  57   32   57 1
  58   33   34 ar
  59   33   58 1
  60   34   35 ar
  61   34   36 1
  62   36   37 1
  63   37   59 1
  64   37   60 1
  65   37   61 1

#	End of record

