#	Name: ASD03731809
#	Creating user name:	WinNT
#	Creation time:	15. 06. 2019 20:46

#	Modifying user name:	WinNT
#	Modification time:	15. 06. 2019 20:46

#	Program:	/corina/corina34_cracker 3.40 0067  02.08.2006

@<TRIPOS>MOLECULE
ASD03731809
  44   46    0    0    0
SMALL
NO_CHARGES


@<TRIPOS>ATOM
   1 C1             0.3739     1.0929     1.9792 C.2     
   2 C2             0.2901    -0.2829     1.4501 C.ar    
   3 C3             1.3722    -0.8333     0.7656 C.ar    
   4 C4             1.2880    -2.1316     0.2691 C.ar    
   5 C5             0.1132    -2.8767     0.4619 C.ar    
   6 C6            -0.9588    -2.3180     1.1455 C.ar    
   7 C7            -0.8733    -1.0360     1.6410 C.ar    
   8 O8             1.3868     1.7457     1.8177 O.2     
   9 N9            -0.6746     1.6272     2.6363 N.am    
  10 S10           -0.5807     3.1704     3.2297 S.o2    
  11 O11           -1.8334     3.3773     3.8678 O.2     
  12 O12            0.6311     3.1874     3.9717 O.2     
  13 C13           -0.4379     4.2150     1.7536 C.3     
  14 C14            2.3949    -2.7047    -0.4358 C.1     
  15 N15            3.2730    -3.1594    -0.9949 N.1     
  16 O16            0.0255    -4.1404    -0.0195 O.3     
  17 C17           -3.3366    -5.3236    -0.7858 C.ar    
  18 C18           -2.1171    -4.6618    -0.9056 C.ar    
  19 C19           -1.1654    -4.7850     0.0935 C.ar    
  20 C20           -1.4283    -5.5674     1.2101 C.ar    
  21 C21           -2.6380    -6.2249     1.3287 C.ar    
  22 C22           -3.5922    -6.1071     0.3377 C.ar    
  23 C23           -4.3628    -5.1909    -1.8496 C.ar    
  24 C24           -5.5831    -5.8528    -1.7303 C.ar    
  25 C25           -6.5339    -5.7260    -2.7226 C.ar    
  26 C26           -6.2770    -4.9439    -3.8342 C.ar    
  27 C27           -5.0672    -4.2850    -3.9580 C.ar    
  28 C28           -4.1118    -4.3995    -2.9685 C.ar    
  29 H29            2.2726    -0.2549     0.6205 H       
  30 H30           -1.8613    -2.8926     1.2927 H       
  31 H31           -1.7089    -0.6091     2.1756 H       
  32 H32           -1.4842     1.1078     2.7616 H       
  33 H33           -1.3156     4.0744     1.1227 H       
  34 H34           -0.3700     5.2607     2.0537 H       
  35 H35            0.4576     3.9377     1.1974 H       
  36 H36           -1.9142    -4.0536    -1.7747 H       
  37 H37           -0.6851    -5.6626     1.9879 H       
  38 H38           -2.8374    -6.8329     2.1988 H       
  39 H39           -4.5368    -6.6220     0.4336 H       
  40 H40           -5.7844    -6.4643    -0.8631 H       
  41 H41           -7.4801    -6.2386    -2.6312 H       
  42 H42           -7.0237    -4.8477    -4.6086 H       
  43 H43           -4.8715    -3.6762    -4.8283 H       
  44 H44           -3.1694    -3.8805    -3.0636 H       
@<TRIPOS>BOND
   1    1    2 1
   2    1    8 2
   3    1    9 am
   4    2    3 ar
   5    2    7 ar
   6    3    4 ar
   7    3   29 1
   8    4    5 ar
   9    4   14 1
  10    5    6 ar
  11    5   16 1
  12    6    7 ar
  13    6   30 1
  14    7   31 1
  15    9   10 am
  16    9   32 1
  17   10   11 2
  18   10   12 2
  19   10   13 1
  20   13   33 1
  21   13   34 1
  22   13   35 1
  23   14   15 3
  24   16   19 1
  25   17   18 ar
  26   17   22 ar
  27   17   23 1
  28   18   19 ar
  29   18   36 1
  30   19   20 ar
  31   20   21 ar
  32   20   37 1
  33   21   22 ar
  34   21   38 1
  35   22   39 1
  36   23   24 ar
  37   23   28 ar
  38   24   25 ar
  39   24   40 1
  40   25   26 ar
  41   25   41 1
  42   26   27 ar
  43   26   42 1
  44   27   28 ar
  45   27   43 1
  46   28   44 1

#	End of record

