#	Name: ASD05842008
#	Creating user name:	WinNT
#	Creation time:	15. 06. 2019 21:03

#	Modifying user name:	WinNT
#	Modification time:	15. 06. 2019 21:03

#	Program:	/corina/corina34_cracker 3.40 0067  02.08.2006

@<TRIPOS>MOLECULE
ASD05842008
  46   48    0    0    0
SMALL
NO_CHARGES


@<TRIPOS>ATOM
   1 C1             0.0209     1.5076     0.1569 C.ar    
   2 C2             0.1979     0.1467     0.3212 C.ar    
   3 C3            -0.8839    -0.7083     0.2209 C.ar    
   4 C4            -2.1426    -0.2021    -0.0434 C.ar    
   5 C5            -2.3199     1.1593    -0.2069 C.ar    
   6 C6            -1.2391     2.0144    -0.1022 C.ar    
   7 C7             1.2001     2.4395     0.2662 C.3     
   8 N8             1.2145     3.0567     1.5992 N.3     
   9 C9             2.4131     3.8861     1.7824 C.3     
  10 C10            2.4574     4.4078     3.2200 C.3     
  11 C11            3.6196     5.3545     3.3752 C.ar    
  12 C12            3.4478     6.7050     3.1355 C.ar    
  13 C13            4.5139     7.5733     3.2779 C.ar    
  14 C14            5.7517     7.0912     3.6603 C.ar    
  15 C15            5.9233     5.7408     3.9009 C.ar    
  16 C16            4.8562     4.8731     3.7627 C.ar    
  17 C17           -1.4323     3.4983    -0.2805 C.3     
  18 C18           -1.1735     3.8695    -1.7179 C.ar    
  19 Br19          -3.2767     3.9813     0.1992 Br      
  20 C20           -0.1279     4.7161    -2.0357 C.ar    
  21 C21            0.1094     5.0567    -3.3542 C.ar    
  22 C22           -0.6985     4.5503    -4.3550 C.ar    
  23 C23           -1.7435     3.7030    -4.0374 C.ar    
  24 C24           -1.9782     3.3590    -2.7192 C.ar    
  25 H25            1.1815    -0.2488     0.5277 H       
  26 H26           -0.7454    -1.7717     0.3486 H       
  27 H27           -2.9876    -0.8700    -0.1225 H       
  28 H28           -3.3033     1.5548    -0.4137 H       
  29 H29            2.1222     1.8779     0.1158 H       
  30 H30            1.1203     3.2171    -0.4934 H       
  31 H31            0.3753     3.5939     1.7580 H       
  32 H32            3.3026     3.2876     1.5854 H       
  33 H33            2.3814     4.7282     1.0910 H       
  34 H34            1.5289     4.9325     3.4448 H       
  35 H35            2.5769     3.5701     3.9070 H       
  36 H36            2.4807     7.0817     2.8368 H       
  37 H37            4.3799     8.6284     3.0900 H       
  38 H38            6.5849     7.7695     3.7708 H       
  39 H39            6.8905     5.3641     4.1993 H       
  40 H40            4.9902     3.8180     3.9506 H       
  41 H41           -0.7367     4.0353     0.3644 H       
  42 H42            0.5033     5.1118    -1.2537 H       
  43 H43            0.9259     5.7187    -3.6024 H       
  44 H44           -0.5135     4.8169    -5.3851 H       
  45 H45           -2.3749     3.3076    -4.8193 H       
  46 H46           -2.7946     2.6970    -2.4711 H       
@<TRIPOS>BOND
   1    1    2 ar
   2    1    7 1
   3    1    6 ar
   4    2    3 ar
   5    2   25 1
   6    3    4 ar
   7    3   26 1
   8    4    5 ar
   9    4   27 1
  10    5    6 ar
  11    5   28 1
  12    6   17 1
  13    7    8 1
  14    7   29 1
  15    7   30 1
  16    8    9 1
  17    8   31 1
  18    9   10 1
  19    9   32 1
  20    9   33 1
  21   10   11 1
  22   10   34 1
  23   10   35 1
  24   11   12 ar
  25   11   16 ar
  26   12   13 ar
  27   12   36 1
  28   13   14 ar
  29   13   37 1
  30   14   15 ar
  31   14   38 1
  32   15   16 ar
  33   15   39 1
  34   16   40 1
  35   17   18 1
  36   17   19 1
  37   17   41 1
  38   18   20 ar
  39   18   24 ar
  40   20   21 ar
  41   20   42 1
  42   21   22 ar
  43   21   43 1
  44   22   23 ar
  45   22   44 1
  46   23   24 ar
  47   23   45 1
  48   24   46 1

#	End of record

