#	Name: ASD03090012
#	Creating user name:	WinNT
#	Creation time:	15. 06. 2019 20:28

#	Modifying user name:	WinNT
#	Modification time:	15. 06. 2019 20:28

#	Program:	/corina/corina34_cracker 3.40 0067  02.08.2006

@<TRIPOS>MOLECULE
ASD03090012
  35   36    0    0    0
SMALL
NO_CHARGES


@<TRIPOS>ATOM
   1 C1            -0.0120     1.3750     0.0281 C.ar    
   2 C2             0.0157    -0.0112     0.0494 C.ar    
   3 C3            -1.1675    -0.7267     0.0746 C.ar    
   4 C4            -2.3842    -0.0592     0.0788 C.ar    
   5 C5            -2.4160     1.3272     0.0581 C.ar    
   6 C6            -1.2325     2.0462     0.0386 C.ar    
   7 Cl7           -1.1308    -2.4621     0.1006 Cl      
   8 O8            -3.5463    -0.7652     0.1027 O.3     
   9 C9            -4.7618    -0.0138     0.1056 C.3     
  10 O10           -1.2621     3.4057     0.0187 O.3     
  11 C11           -2.5491     4.0267     0.0192 C.3     
  12 N12            1.1887     2.1012     0.0020 N.am    
  13 C13            2.3045     1.5405    -0.5050 C.2     
  14 N14            3.4369     2.2645    -0.6050 N.am    
  15 C15            4.5916     1.6842    -1.1297 C.2     
  16 N16            5.7560     2.2572    -1.2871 N.2     
  17 O17            6.5629     1.4954    -1.7673 O.3     
  18 C18            6.0293     0.2871    -1.9980 C.2     
  19 C19            4.7400     0.3503    -1.5945 C.2     
  20 C20            6.7309    -0.9097    -2.5867 C.3     
  21 O21            2.2896     0.3814    -0.8721 O.2     
  22 H22            0.9617    -0.5322     0.0458 H       
  23 H23           -3.3632     1.8459     0.0613 H       
  24 H24           -4.8111     0.6010    -0.7931 H       
  25 H25           -5.6111    -0.6968     0.1256 H       
  26 H26           -4.7905     0.6275     0.9866 H       
  27 H27           -2.4298     5.1100     0.0023 H       
  28 H28           -3.1062     3.7087    -0.8621 H       
  29 H29           -3.0930     3.7350     0.9176 H       
  30 H30            1.2155     3.0067     0.3488 H       
  31 H31            3.4488     3.1891    -0.3122 H       
  32 H32            3.9945    -0.4305    -1.6245 H       
  33 H33            7.7668    -0.6516    -2.8068 H       
  34 H34            6.7054    -1.7332    -1.8730 H       
  35 H35            6.2280    -1.2099    -3.5060 H       
@<TRIPOS>BOND
   1    1    2 ar
   2    1   12 1
   3    1    6 ar
   4    2    3 ar
   5    2   22 1
   6    3    4 ar
   7    3    7 1
   8    4    5 ar
   9    4    8 1
  10    5    6 ar
  11    5   23 1
  12    6   10 1
  13    8    9 1
  14    9   24 1
  15    9   25 1
  16    9   26 1
  17   10   11 1
  18   11   27 1
  19   11   28 1
  20   11   29 1
  21   12   13 am
  22   12   30 1
  23   13   14 am
  24   13   21 2
  25   14   15 1
  26   14   31 1
  27   15   16 2
  28   15   19 1
  29   16   17 1
  30   17   18 1
  31   18   19 2
  32   18   20 1
  33   19   32 1
  34   20   33 1
  35   20   34 1
  36   20   35 1

#	End of record

