#	Name: ASD01884269
#	Creating user name:	WinNT
#	Creation time:	15. 06. 2019 19:47

#	Modifying user name:	WinNT
#	Modification time:	15. 06. 2019 19:47

#	Program:	/corina/corina34_cracker 3.40 0067  02.08.2006

@<TRIPOS>MOLECULE
ASD01884269
  28   30    0    0    0
SMALL
NO_CHARGES


@<TRIPOS>ATOM
   1 C1            -3.7452     1.8115    -3.3476 C.ar    
   2 C2            -3.9130     0.4483    -3.5252 C.ar    
   3 C3            -3.8988    -0.4094    -2.4500 C.ar    
   4 C4            -3.7135     0.0765    -1.1470 C.ar    
   5 C5            -3.5457     1.4531    -0.9891 C.ar    
   6 C6            -3.5557     2.3121    -2.0729 C.ar    
   7 N7            -3.6736    -0.6449     0.0343 N.am    
   8 C8            -3.4848     0.0148     1.1811 C.2     
   9 S9            -3.3401     1.7260     0.7465 S.3     
  10 O10           -3.4251    -0.4634     2.2987 O.2     
  11 C11           -3.8282    -2.0371     0.0274 C.ar    
  12 C12           -2.7165    -2.8599    -0.0934 C.ar    
  13 C13           -2.8722    -4.2325    -0.0993 C.ar    
  14 C14           -4.1336    -4.7870     0.0147 C.ar    
  15 C15           -5.2430    -3.9700     0.1352 C.ar    
  16 C16           -5.0934    -2.5973     0.1471 C.ar    
  17 Br17          -3.7672     2.9770    -4.8365 Br      
  18 C18           -6.6161    -4.5786     0.2588 C.3     
  19 F19           -6.5126    -5.9734     0.2268 F       
  20 F20           -7.1950    -4.1815     1.4689 F       
  21 F21           -7.4155    -4.1458    -0.8047 F       
  22 H22           -4.0571     0.0538    -4.5202 H       
  23 H23           -4.0323    -1.4690    -2.6106 H       
  24 H24           -3.4233     3.3734    -1.9229 H       
  25 H25           -1.7310    -2.4274    -0.1829 H       
  26 H26           -2.0079    -4.8731    -0.1936 H       
  27 H27           -4.2529    -5.8604     0.0095 H       
  28 H28           -5.9601    -1.9598     0.2414 H       
@<TRIPOS>BOND
   1    1    2 ar
   2    1   17 1
   3    1    6 ar
   4    2    3 ar
   5    2   22 1
   6    3    4 ar
   7    3   23 1
   8    4    5 ar
   9    4    7 1
  10    5    6 ar
  11    5    9 1
  12    6   24 1
  13    7    8 am
  14    7   11 1
  15    8    9 1
  16    8   10 2
  17   11   12 ar
  18   11   16 ar
  19   12   13 ar
  20   12   25 1
  21   13   14 ar
  22   13   26 1
  23   14   15 ar
  24   14   27 1
  25   15   16 ar
  26   15   18 1
  27   16   28 1
  28   18   19 1
  29   18   20 1
  30   18   21 1

#	End of record

