#	Name: ASD01914720
#	Creating user name:	WinNT
#	Creation time:	15. 06. 2019 20:04

#	Modifying user name:	WinNT
#	Modification time:	15. 06. 2019 20:04

#	Program:	/corina/corina34_cracker 3.40 0067  02.08.2006

@<TRIPOS>MOLECULE
ASD01914720
  56   60    0    0    0
SMALL
NO_CHARGES


@<TRIPOS>ATOM
   1 C1            -0.0187     1.5258     0.0104 C.3     
   2 C2             0.0021    -0.0041     0.0020 C.3     
   3 C3             0.7182    -0.4975    -1.2568 C.3     
   4 C4            -0.0218     0.0093    -2.4963 C.3     
   5 C5            -0.0425     1.5392    -2.4879 C.3     
   6 C6             1.3929     2.0688    -2.4988 C.3     
   7 C7             2.1328     1.5619    -1.2592 C.3     
   8 C8             1.4167     2.0553    -0.0004 C.3     
   9 C9             2.1536     0.0321    -1.2676 C.3     
  10 C10           -0.7587     2.0326    -1.2291 C.3     
  11 C11           -1.5369     3.7981     2.6564 C.ar    
  12 C12           -1.6819     5.1655     2.8878 C.ar    
  13 N13           -2.0278     2.9240     3.5304 N.ar    
  14 N14           -2.3057     5.5865     3.9732 N.ar    
  15 C15           -2.7915     4.7138     4.8383 C.ar    
  16 C16           -2.6489     3.3527     4.6109 C.ar    
  17 C17           -0.8434     3.3203     1.4375 C.2     
  18 O18           -0.4000     4.1205     0.6376 O.2     
  19 N19           -0.7044     1.9982     1.2158 N.am    
  20 C20           -3.2056     2.3624     5.6011 C.3     
  21 C21            1.3412    -4.1041    -2.2930 C.ar    
  22 C22            1.9438    -4.7895    -3.3473 C.ar    
  23 N23            0.7893    -4.7841    -1.2920 N.ar    
  24 N24            1.9640    -6.1101    -3.3473 N.ar    
  25 C25            1.4142    -6.7808    -2.3503 C.ar    
  26 C26            0.8139    -6.1019    -1.3000 C.ar    
  27 C27            1.3211    -2.6228    -2.2848 C.2     
  28 O28            1.8303    -2.0032    -3.1978 O.2     
  29 N29            0.7381    -1.9623    -1.2648 N.am    
  30 C30            0.1891    -6.8726    -0.1656 C.3     
  31 H31            0.5293    -0.3651     0.8851 H       
  32 H32           -1.0205    -0.3814     0.0098 H       
  33 H33            0.4884    -0.3422    -3.3931 H       
  34 H34           -1.0444    -0.3679    -2.4886 H       
  35 H35           -0.5697     1.9003    -3.3710 H       
  36 H36            1.9030     1.7172    -3.3956 H       
  37 H37            1.3781     3.1587    -2.4928 H       
  38 H38            3.1554     1.9392    -1.2670 H       
  39 H39            1.4019     3.1452     0.0056 H       
  40 H40            1.9439     1.6943     0.8826 H       
  41 H41            2.6808    -0.3290    -0.3846 H       
  42 H42            2.6638    -0.3194    -2.1644 H       
  43 H43           -1.7813     1.6553    -1.2214 H       
  44 H44           -0.7734     3.1225    -1.2231 H       
  45 H45           -1.2846     5.8790     2.1810 H       
  46 H46           -3.3010     5.0611     5.7249 H       
  47 H47           -1.0583     1.3595     1.8542 H       
  48 H48           -2.4475     2.1317     6.3496 H       
  49 H49           -4.0806     2.7905     6.0902 H       
  50 H50           -3.4913     1.4489     5.0798 H       
  51 H51            2.3929    -4.2415    -4.1624 H       
  52 H52            1.4323    -7.8606    -2.3532 H       
  53 H53            0.3316    -2.4569    -0.5361 H       
  54 H54           -0.8577    -7.0721    -0.3950 H       
  55 H55            0.7182    -7.8163    -0.0327 H       
  56 H56            0.2549    -6.2869     0.7513 H       
@<TRIPOS>BOND
   1    1    2 1
   2    1    8 1
   3    1   10 1
   4    1   19 1
   5    2    3 1
   6    2   31 1
   7    2   32 1
   8    3    4 1
   9    3    9 1
  10    3   29 1
  11    4    5 1
  12    4   33 1
  13    4   34 1
  14    5    6 1
  15    5   10 1
  16    5   35 1
  17    6    7 1
  18    6   36 1
  19    6   37 1
  20    7    8 1
  21    7    9 1
  22    7   38 1
  23    8   39 1
  24    8   40 1
  25    9   41 1
  26    9   42 1
  27   10   43 1
  28   10   44 1
  29   11   12 ar
  30   11   13 ar
  31   11   17 1
  32   12   14 ar
  33   12   45 1
  34   13   16 ar
  35   14   15 ar
  36   15   16 ar
  37   15   46 1
  38   16   20 1
  39   17   18 2
  40   17   19 am
  41   19   47 1
  42   20   48 1
  43   20   49 1
  44   20   50 1
  45   21   22 ar
  46   21   23 ar
  47   21   27 1
  48   22   24 ar
  49   22   51 1
  50   23   26 ar
  51   24   25 ar
  52   25   26 ar
  53   25   52 1
  54   26   30 1
  55   27   28 2
  56   27   29 am
  57   29   53 1
  58   30   54 1
  59   30   55 1
  60   30   56 1

#	End of record

