#	Name: ASD05313200
#	Creating user name:	WinNT
#	Creation time:	15. 06. 2019 20:58

#	Modifying user name:	WinNT
#	Modification time:	15. 06. 2019 20:58

#	Program:	/corina/corina34_cracker 3.40 0067  02.08.2006

@<TRIPOS>MOLECULE
ASD05313200
  35   38    0    0    0
SMALL
NO_CHARGES


@<TRIPOS>ATOM
   1 C1            -0.0725     0.8189     1.0219 C.2     
   2 C2             0.1134    -0.6178     0.5952 C.3     
   3 N3             0.9313     1.7323     1.0481 N.pl3   
   4 N4             1.4567    -0.7177    -0.0061 N.am    
   5 C5             2.5712    -0.0365     0.6701 C.3     
   6 C6             2.3179     1.4758     0.6626 C.3     
   7 N7            -0.9053     2.6425     1.7050 N.2     
   8 N8            -1.1573     1.4103     1.4237 N.2     
   9 C9             0.3725     2.8936     1.4922 C.2     
  10 S10            0.3081     5.6634     2.2739 S.3     
  11 C11            1.0622     4.1792     1.6976 C.2     
  12 N12            2.3288     4.4013     1.4820 N.2     
  13 C13            2.7708     5.6129     1.7210 C.2     
  14 C14            1.8611     6.4896     2.1631 C.2     
  15 C15            1.6572    -1.4138    -1.1426 C.2     
  16 O16            2.7491    -1.4037    -1.6770 O.2     
  17 C17            0.5503    -2.1890    -1.7389 C.ar    
  18 C18            0.3188    -2.1363    -3.1163 C.ar    
  19 C19           -0.7176    -2.8634    -3.6667 C.ar    
  20 C20           -1.5260    -3.6431    -2.8571 C.ar    
  21 C21           -1.3010    -3.6990    -1.4913 C.ar    
  22 C22           -0.2657    -2.9821    -0.9297 C.ar    
  23 Cl23          -2.8277    -4.5543    -3.5564 Cl      
  24 Cl24           1.3316    -1.1585    -4.1321 Cl      
  25 H25            0.0438    -1.2752     1.4618 H       
  26 H26           -0.6444    -0.8884    -0.1401 H       
  27 H27            2.6424    -0.3886     1.6993 H       
  28 H28            3.5019    -0.2524     0.1455 H       
  29 H29            2.4967     1.8700    -0.3378 H       
  30 H30            2.9888     1.9610     1.3716 H       
  31 H31            3.8049     5.8862     1.5709 H       
  32 H32            2.0465     7.5248     2.4088 H       
  33 H33           -0.8983    -2.8237    -4.7308 H       
  34 H34           -1.9353    -4.3091    -0.8654 H       
  35 H35           -0.0888    -3.0307     0.1346 H       
@<TRIPOS>BOND
   1    1    2 1
   2    1    3 1
   3    1    8 2
   4    2    4 1
   5    2   25 1
   6    2   26 1
   7    3    6 1
   8    3    9 1
   9    4    5 1
  10    4   15 am
  11    5    6 1
  12    5   27 1
  13    5   28 1
  14    6   29 1
  15    6   30 1
  16    7    8 1
  17    7    9 2
  18    9   11 1
  19   10   11 1
  20   10   14 1
  21   11   12 2
  22   12   13 1
  23   13   14 2
  24   13   31 1
  25   14   32 1
  26   15   16 2
  27   15   17 1
  28   17   18 ar
  29   17   22 ar
  30   18   19 ar
  31   18   24 1
  32   19   20 ar
  33   19   33 1
  34   20   21 ar
  35   20   23 1
  36   21   22 ar
  37   21   34 1
  38   22   35 1

#	End of record

