#	Name: ASD05430457
#	Creating user name:	WinNT
#	Creation time:	15. 06. 2019 21:00

#	Modifying user name:	WinNT
#	Modification time:	15. 06. 2019 21:00

#	Program:	/corina/corina34_cracker 3.40 0067  02.08.2006

@<TRIPOS>MOLECULE
ASD05430457
  64   68    0    0    0
SMALL
NO_CHARGES


@<TRIPOS>ATOM
   1 C1            -0.3773     1.8943     1.5904 C.ar    
   2 C2            -0.1169     0.6409     1.0369 C.ar    
   3 C3            -1.0855    -0.0007     0.2754 C.ar    
   4 C4            -2.3080     0.5980     0.0632 C.ar    
   5 C5            -2.5765     1.8548     0.6156 C.ar    
   6 C6            -1.6033     2.4983     1.3866 C.ar    
   7 C7            -4.9975     1.7454     0.3202 C.2     
   8 C8            -3.8818     2.4960     0.3901 C.2     
   9 O9             0.5730     2.5193     2.3351 O.3     
  10 C10            1.3364    -1.2556     1.6827 C.2     
  11 N11            1.1247     0.0277     1.2490 N.pl3   
  12 C12            2.6700    -1.4304     1.7474 C.2     
  13 N13            3.2612    -0.2888     1.3650 N.2     
  14 C14            2.3463     0.5922     1.0639 C.2     
  15 C15            3.3763    -2.6910     2.1755 C.3     
  16 C16           -7.3223     0.6807     1.3155 C.2     
  17 N17           -7.4259     1.7870     0.5670 N.am    
  18 N18           -6.1939    -0.0433     1.4191 N.am    
  19 C19           -6.3064     2.3115    -0.0709 C.2     
  20 C20           -4.9953     0.2587     0.6316 C.3     
  21 C21            0.2381     3.8008     2.8712 C.3     
  22 O22           -8.3013     0.3120     1.9346 O.2     
  23 C23           -8.7020     2.4985     0.4361 C.3     
  24 C24           -8.8578     2.9621    -1.0129 C.3     
  25 C25           -7.6539     3.7942    -1.4410 C.3     
  26 N26           -6.3993     3.2479    -0.9522 N.2     
  27 C27           -9.8359     1.5733     0.7956 C.ar    
  28 C28          -10.5285     1.7566     1.9780 C.ar    
  29 C29          -10.1865     0.5455    -0.0599 C.ar    
  30 C30          -11.2268    -0.3030     0.2684 C.ar    
  31 C31          -11.9177    -0.1237     1.4548 C.ar    
  32 C32          -11.5688     0.9090     2.3085 C.ar    
  33 F33          -12.9348    -0.9526     1.7766 F       
  34 C34           -6.1609    -1.1691     2.3560 C.3     
  35 C35           -8.7107     3.7125     1.3672 C.3     
  36 O36           -9.9548     4.4034     1.2375 O.3     
  37 H37           -0.8796    -0.9711    -0.1517 H       
  38 H38           -3.0589     0.0971    -0.5298 H       
  39 H39           -1.8066     3.4686     1.8152 H       
  40 H40           -3.9448     3.5686     0.2807 H       
  41 H41            0.5789    -1.9848     1.9295 H       
  42 H42            2.5299     1.6008     0.7241 H       
  43 H43            3.5508    -3.3232     1.3049 H       
  44 H44            4.3307    -2.4344     2.6353 H       
  45 H45            2.7583    -3.2270     2.8958 H       
  46 H46           -5.0115    -0.3118    -0.2970 H       
  47 H47           -4.1041     0.0041     1.2052 H       
  48 H48            1.0819     4.1873     3.4429 H       
  49 H49            0.0069     4.4866     2.0561 H       
  50 H50           -0.6299     3.7062     3.5237 H       
  51 H51           -8.9411     2.0905    -1.6621 H       
  52 H52           -9.7621     3.5640    -1.1024 H       
  53 H53           -7.6235     3.8368    -2.5297 H       
  54 H54           -7.7685     4.8063    -1.0530 H       
  55 H55          -10.2562     2.5621     2.6438 H       
  56 H56           -9.6474     0.4058    -0.9852 H       
  57 H57          -11.5009    -1.1055    -0.4005 H       
  58 H58          -12.1069     1.0497     3.2344 H       
  59 H59           -7.1242    -1.2511     2.8594 H       
  60 H60           -5.9566    -2.0902     1.8102 H       
  61 H61           -5.3774    -1.0036     3.0954 H       
  62 H62           -8.5851     3.3808     2.3979 H       
  63 H63           -7.8936     4.3821     1.0989 H       
  64 H64          -10.0307     5.1861     1.8004 H       
@<TRIPOS>BOND
   1    1    2 ar
   2    1    9 1
   3    1    6 ar
   4    2    3 ar
   5    2   11 1
   6    3    4 ar
   7    3   37 1
   8    4    5 ar
   9    4   38 1
  10    5    6 ar
  11    5    8 1
  12    6   39 1
  13    7    8 2
  14    7   19 1
  15    7   20 1
  16    8   40 1
  17    9   21 1
  18   10   11 1
  19   10   12 2
  20   10   41 1
  21   11   14 1
  22   12   13 1
  23   12   15 1
  24   13   14 2
  25   14   42 1
  26   15   43 1
  27   15   44 1
  28   15   45 1
  29   16   17 am
  30   16   18 am
  31   16   22 2
  32   17   23 1
  33   17   19 1
  34   18   34 1
  35   18   20 1
  36   19   26 2
  37   20   46 1
  38   20   47 1
  39   21   48 1
  40   21   49 1
  41   21   50 1
  42   23   24 1
  43   23   27 1
  44   23   35 1
  45   24   25 1
  46   24   51 1
  47   24   52 1
  48   25   26 1
  49   25   53 1
  50   25   54 1
  51   27   28 ar
  52   27   29 ar
  53   28   32 ar
  54   28   55 1
  55   29   30 ar
  56   29   56 1
  57   30   31 ar
  58   30   57 1
  59   31   32 ar
  60   31   33 1
  61   32   58 1
  62   34   59 1
  63   34   60 1
  64   34   61 1
  65   35   36 1
  66   35   62 1
  67   35   63 1
  68   36   64 1

#	End of record

