#	Name: ASD04910407
#	Creating user name:	WinNT
#	Creation time:	15. 06. 2019 20:55

#	Modifying user name:	WinNT
#	Modification time:	15. 06. 2019 20:55

#	Program:	/corina/corina34_cracker 3.40 0067  02.08.2006

@<TRIPOS>MOLECULE
ASD04910407
  42   44    0    0    0
SMALL
NO_CHARGES


@<TRIPOS>ATOM
   1 C1             1.0537     1.2281     0.6269 C.2     
   2 C2             0.8916    -0.2310     0.4678 C.ar    
   3 C3             1.9871    -1.0336     0.1204 C.ar    
   4 C4             1.7878    -2.3931    -0.0172 C.ar    
   5 C5             0.5099    -2.9194     0.1929 C.ar    
   6 N6            -0.5074    -2.1277     0.5216 N.ar    
   7 C7            -0.3552    -0.8308     0.6673 C.ar    
   8 O8             2.1420     1.7404     0.4564 O.2     
   9 O9            -0.0064     1.9918     0.9555 O.3     
  10 C10            0.2868    -4.3686     0.0479 C.2     
  11 N11           -0.9002    -4.8672     0.2418 N.2     
  12 C12           -0.5736    -6.9055    -0.9816 C.ar    
  13 C13           -1.1070    -6.2108     0.1074 C.ar    
  14 C14           -1.8577    -6.9148     1.0607 C.ar    
  15 C15           -2.0383    -8.2719     0.8809 C.ar    
  16 C16           -1.4753    -8.8919    -0.2296 C.ar    
  17 N17           -0.7713    -8.2002    -1.1127 N.ar    
  18 N18           -1.6550   -10.2643    -0.4162 N.pl3   
  19 N19           -2.7297   -11.0280     0.0575 N.2     
  20 C20           -2.5468   -12.2685    -0.3157 C.2     
  21 C21           -1.3509   -12.3397    -1.0394 C.2     
  22 C22           -0.8217   -11.0959    -1.0945 C.2     
  23 C23           -0.7598   -13.5822    -1.6541 C.3     
  24 F24           -1.5943   -14.6742    -1.3925 F       
  25 F25           -0.6406   -13.4070    -3.0369 F       
  26 F26            0.5043   -13.8188    -1.1033 F       
  27 C27           -2.8364    -9.0726     1.8773 C.3     
  28 C28            0.2268     3.4182     1.0950 C.3     
  29 H29            2.9634    -0.5991    -0.0362 H       
  30 H30            2.6090    -3.0417    -0.2843 H       
  31 H31           -1.2038    -0.2208     0.9399 H       
  32 H32            1.1080    -5.0172    -0.2191 H       
  33 H33            0.0024    -6.3742    -1.7249 H       
  34 H34           -2.2834    -6.4080     1.9141 H       
  35 H35           -3.2061   -13.0966    -0.1014 H       
  36 H36            0.0981   -10.8153    -1.5861 H       
  37 H37           -3.8645    -9.1668     1.5277 H       
  38 H38           -2.3962   -10.0642     1.9826 H       
  39 H39           -2.8258    -8.5661     2.8424 H       
  40 H40            0.9659     3.5907     1.8774 H       
  41 H41            0.5959     3.8200     0.1514 H       
  42 H42           -0.7065     3.9146     1.3610 H       
@<TRIPOS>BOND
   1    1    2 1
   2    1    8 2
   3    1    9 1
   4    2    3 ar
   5    2    7 ar
   6    3    4 ar
   7    3   29 1
   8    4    5 ar
   9    4   30 1
  10    5    6 ar
  11    5   10 1
  12    6    7 ar
  13    7   31 1
  14    9   28 1
  15   10   11 2
  16   10   32 1
  17   11   13 1
  18   12   13 ar
  19   12   17 ar
  20   12   33 1
  21   13   14 ar
  22   14   15 ar
  23   14   34 1
  24   15   16 ar
  25   15   27 1
  26   16   17 ar
  27   16   18 1
  28   18   19 1
  29   18   22 1
  30   19   20 2
  31   20   21 1
  32   20   35 1
  33   21   22 2
  34   21   23 1
  35   22   36 1
  36   23   24 1
  37   23   25 1
  38   23   26 1
  39   27   37 1
  40   27   38 1
  41   27   39 1
  42   28   40 1
  43   28   41 1
  44   28   42 1

#	End of record

