#	Name: ASD01918081
#	Creating user name:	WinNT
#	Creation time:	15. 06. 2019 20:10

#	Modifying user name:	WinNT
#	Modification time:	15. 06. 2019 20:10

#	Program:	/corina/corina34_cracker 3.40 0067  02.08.2006

@<TRIPOS>MOLECULE
ASD01918081
  46   49    0    0    0
SMALL
NO_CHARGES


@<TRIPOS>ATOM
   1 C1            -0.0229     1.4979     0.0323 C.3     
   2 C2            -0.0030    -0.0078     0.0104 C.2     
   3 C3             1.0839    -0.7502    -0.3152 C.2     
   4 C4             2.4195    -0.1741    -0.7032 C.3     
   5 C5             2.2210     1.3042    -1.0630 C.3     
   6 C6             1.4269     1.9996     0.0455 C.3     
   7 N7             0.7092    -2.0370    -0.2161 N.pl3   
   8 N8            -0.5299    -2.0648     0.1452 N.2     
   9 N9            -0.9807    -0.8643     0.2876 N.2     
  10 C10            1.5578    -3.2033    -0.4730 C.3     
  11 N11            1.4441     3.4476    -0.1767 N.pl3   
  12 N12            2.3345     4.3739     0.3900 N.2     
  13 C13            1.9966     5.5566    -0.0752 C.2     
  14 N14            0.9481     5.4115    -0.8966 N.2     
  15 C15            0.6137     4.1501    -0.9681 C.2     
  16 C16            2.6654     6.8394     0.2553 C.ar    
  17 C17            2.8289    -3.1055     0.3729 C.3     
  18 C18            0.7970    -4.4786    -0.1046 C.3     
  19 C19            1.9336    -3.2440    -1.9556 C.3     
  20 C20            2.2093     8.0302    -0.3065 C.ar    
  21 C21            2.8340     9.2207     0.0035 C.ar    
  22 C22            3.9137     9.2332     0.8716 C.ar    
  23 C23            4.3708     8.0515     1.4321 C.ar    
  24 C24            3.7477     6.8573     1.1328 C.ar    
  25 F25            4.5229    10.4010     1.1721 F       
  26 H26           -0.5328     1.8714    -0.8557 H       
  27 H27           -0.5399     1.8454     0.9268 H       
  28 H28            3.1129    -0.2586     0.1335 H       
  29 H29            2.8152    -0.7119    -1.5647 H       
  30 H30            3.1931     1.7855    -1.1700 H       
  31 H31            1.6737     1.3789    -2.0027 H       
  32 H32            1.8798     1.7755     1.0112 H       
  33 H33           -0.1926     3.7421    -1.5594 H       
  34 H34            2.5611    -3.0765     1.4291 H       
  35 H35            3.4602    -3.9732     0.1818 H       
  36 H36            3.3709    -2.1969     0.1105 H       
  37 H37           -0.1086    -4.5483    -0.7073 H       
  38 H38            1.4283    -5.3464    -0.2958 H       
  39 H39            0.5292    -4.4497     0.9516 H       
  40 H40            2.3990    -2.2998    -2.2384 H       
  41 H41            2.6337    -4.0609    -2.1307 H       
  42 H42            1.0360    -3.4002    -2.5538 H       
  43 H43            1.3681     8.0212    -0.9838 H       
  44 H44            2.4812    10.1441    -0.4315 H       
  45 H45            5.2132     8.0656     2.1078 H       
  46 H46            4.1013     5.9373     1.5742 H       
@<TRIPOS>BOND
   1    1    2 1
   2    1    6 1
   3    1   26 1
   4    1   27 1
   5    2    9 1
   6    2    3 2
   7    3    4 1
   8    3    7 1
   9    4    5 1
  10    4   28 1
  11    4   29 1
  12    5    6 1
  13    5   30 1
  14    5   31 1
  15    6   11 1
  16    6   32 1
  17    7    8 1
  18    7   10 1
  19    8    9 2
  20   10   17 1
  21   10   18 1
  22   10   19 1
  23   11   12 1
  24   11   15 1
  25   12   13 2
  26   13   14 1
  27   13   16 1
  28   14   15 2
  29   15   33 1
  30   16   20 ar
  31   16   24 ar
  32   17   34 1
  33   17   35 1
  34   17   36 1
  35   18   37 1
  36   18   38 1
  37   18   39 1
  38   19   40 1
  39   19   41 1
  40   19   42 1
  41   20   21 ar
  42   20   43 1
  43   21   22 ar
  44   21   44 1
  45   22   23 ar
  46   22   25 1
  47   23   24 ar
  48   23   45 1
  49   24   46 1

#	End of record

