#	Name: ASD01150245
#	Creating user name:	WinNT
#	Creation time:	15. 06. 2019 19:03

#	Modifying user name:	WinNT
#	Modification time:	15. 06. 2019 19:03

#	Program:	/corina/corina34_cracker 3.40 0067  02.08.2006

@<TRIPOS>MOLECULE
ASD01150245
  66   70    0    0    0
SMALL
NO_CHARGES


@<TRIPOS>ATOM
   1 C1             0.2796     0.8708     0.1665 C.ar    
   2 C2             0.1599    -0.5151     0.3182 C.ar    
   3 C3            -1.0615    -1.1080     0.3894 C.ar    
   4 C4            -2.2282    -0.3267     0.3104 C.ar    
   5 C5            -2.1121     1.0764     0.1568 C.ar    
   6 C6            -0.8446     1.6667     0.0915 C.ar    
   7 N7            -3.4381    -0.8927     0.3781 N.ar    
   8 C8            -4.5384    -0.1829     0.3061 C.ar    
   9 C9            -4.5129     1.1984     0.1550 C.ar    
  10 C10           -3.2934     1.8578     0.0780 C.ar    
  11 N11            1.5467     1.4533     0.0962 N.3     
  12 C12           -3.2281     3.3283    -0.0832 C.ar    
  13 C13           -5.8013     1.9761     0.0761 C.3     
  14 C14           -6.4280     1.7860    -1.3066 C.3     
  15 O15           -6.7048     1.5040     1.0776 O.3     
  16 C16           -5.8690    -0.8854     0.3893 C.3     
  17 C17           -2.6833     4.1197     0.9283 C.ar    
  18 C18           -2.6243     5.4888     0.7732 C.ar    
  19 C19           -3.1054     6.0787    -0.3850 C.ar    
  20 C20           -3.6475     5.2968    -1.3927 C.ar    
  21 C21           -3.7058     3.9263    -1.2496 C.ar    
  22 F22           -3.0462     7.4204    -0.5319 F       
  23 C23            2.6002     0.4357     0.2015 C.3     
  24 C24            3.9659     1.0881    -0.0246 C.3     
  25 C25            4.1823     2.1839     1.0228 C.3     
  26 C26            3.0456     3.2050     0.9240 C.3     
  27 C27            1.7065     2.4912     1.1226 C.3     
  28 C28           -7.6594     2.3714     1.5059 C.ar    
  29 C29           -8.4924     2.0210     2.5547 C.ar    
  30 C30           -9.4710     2.9146     2.9912 C.ar    
  31 C31           -9.6035     4.1560     2.3674 C.ar    
  32 C32           -8.7678     4.4952     1.3228 C.ar    
  33 C33           -7.7949     3.6110     0.8951 C.ar    
  34 C34          -10.3649     2.5475     4.1104 C.2     
  35 N35          -11.3093     3.4125     4.5301 N.am    
  36 O36          -10.2478     1.4656     4.6519 O.2     
  37 H37            1.0507    -1.1226     0.3794 H       
  38 H38           -1.1359    -2.1791     0.5063 H       
  39 H39           -0.7476     2.7359    -0.0256 H       
  40 H40           -5.5977     3.0343     0.2404 H       
  41 H41           -6.5436     0.7214    -1.5099 H       
  42 H42           -7.4048     2.2690    -1.3324 H       
  43 H43           -5.7820     2.2322    -2.0627 H       
  44 H44           -6.1500    -1.0089     1.4352 H       
  45 H45           -6.6261    -0.2914    -0.1226 H       
  46 H46           -5.7934    -1.8641    -0.0846 H       
  47 H47           -2.3088     3.6610     1.8315 H       
  48 H48           -2.2028     6.1024     1.5557 H       
  49 H49           -4.0214     5.7612    -2.2933 H       
  50 H50           -4.1280     3.3179    -2.0356 H       
  51 H51            2.5725    -0.0144     1.1939 H       
  52 H52            2.4370    -0.3354    -0.5515 H       
  53 H53            4.7488     0.3355     0.0691 H       
  54 H54            3.9992     1.5264    -1.0220 H       
  55 H55            4.1879     1.7402     2.0184 H       
  56 H56            5.1350     2.6805     0.8389 H       
  57 H57            3.1708     3.9648     1.6955 H       
  58 H58            3.0643     3.6766    -0.0585 H       
  59 H59            0.8942     3.2131     1.0387 H       
  60 H60            1.6830     2.0315     2.1107 H       
  61 H61           -8.3853     1.0587     3.0333 H       
  62 H62          -10.3598     4.8507     2.7017 H       
  63 H63           -8.8716     5.4560     0.8406 H       
  64 H64           -7.1438     3.8819     0.0771 H       
  65 H65          -11.4027     4.2759     4.0980 H       
  66 H66          -11.8957     3.1717     5.2643 H       
@<TRIPOS>BOND
   1    1    2 ar
   2    1   11 1
   3    1    6 ar
   4    2    3 ar
   5    2   37 1
   6    3    4 ar
   7    3   38 1
   8    4    5 ar
   9    4    7 ar
  10    5    6 ar
  11    5   10 ar
  12    6   39 1
  13    7    8 ar
  14    8    9 ar
  15    8   16 1
  16    9   10 ar
  17    9   13 1
  18   10   12 1
  19   11   23 1
  20   11   27 1
  21   12   17 ar
  22   12   21 ar
  23   13   14 1
  24   13   15 1
  25   13   40 1
  26   14   41 1
  27   14   42 1
  28   14   43 1
  29   15   28 1
  30   16   44 1
  31   16   45 1
  32   16   46 1
  33   17   18 ar
  34   17   47 1
  35   18   19 ar
  36   18   48 1
  37   19   20 ar
  38   19   22 1
  39   20   21 ar
  40   20   49 1
  41   21   50 1
  42   23   24 1
  43   23   51 1
  44   23   52 1
  45   24   25 1
  46   24   53 1
  47   24   54 1
  48   25   26 1
  49   25   55 1
  50   25   56 1
  51   26   27 1
  52   26   57 1
  53   26   58 1
  54   27   59 1
  55   27   60 1
  56   28   29 ar
  57   28   33 ar
  58   29   30 ar
  59   29   61 1
  60   30   31 ar
  61   30   34 1
  62   31   32 ar
  63   31   62 1
  64   32   33 ar
  65   32   63 1
  66   33   64 1
  67   34   35 am
  68   34   36 2
  69   35   65 1
  70   35   66 1

#	End of record

