#	Name: ASD01040030
#	Creating user name:	WinNT
#	Creation time:	15. 06. 2019 18:58

#	Modifying user name:	WinNT
#	Modification time:	15. 06. 2019 18:58

#	Program:	/corina/corina34_cracker 3.40 0067  02.08.2006

@<TRIPOS>MOLECULE
ASD01040030
  37   39    0    0    0
SMALL
NO_CHARGES


@<TRIPOS>ATOM
   1 O1            -1.2024     1.2620     0.2592 O.3     
   2 C2            -0.9645    -0.0736     0.2037 C.ar    
   3 C3            -1.5251    -0.9174     1.1549 C.ar    
   4 C4            -1.2865    -2.2731     1.1018 C.ar    
   5 C5            -0.4798    -2.7993     0.0899 C.ar    
   6 C6            -0.2217    -4.2527     0.0290 C.2     
   7 C7            -0.3412    -4.9709    -1.2565 C.ar    
   8 C8             0.0612    -6.3053    -1.3534 C.ar    
   9 C9            -0.0524    -6.9715    -2.5538 C.ar    
  10 C10           -0.5659    -6.3181    -3.6674 C.ar    
  11 O11           -0.6763    -6.9783    -4.8487 O.3     
  12 C12           -0.9673    -4.9909    -3.5752 C.ar    
  13 C13           -0.8624    -4.3193    -2.3771 C.ar    
  14 N14            0.1142    -4.9066     1.1181 N.2     
  15 C15            0.3200    -4.2286     2.2854 C.ar    
  16 C16            1.2206    -3.1603     2.3278 C.ar    
  17 C17            1.4232    -2.4805     3.5104 C.ar    
  18 C18            0.7379    -2.8537     4.6533 C.ar    
  19 C19           -0.1553    -3.9102     4.6191 C.ar    
  20 C20           -0.3731    -4.5957     3.4425 C.ar    
  21 C21            0.0820    -1.9476    -0.8644 C.ar    
  22 C22           -0.1658    -0.5937    -0.8074 C.ar    
  23 H23           -0.5598     1.7543     0.7882 H       
  24 H24           -2.1484    -0.5097     1.9370 H       
  25 H25           -1.7223    -2.9282     1.8417 H       
  26 H26            0.4611    -6.8136    -0.4885 H       
  27 H27            0.2585    -8.0031    -2.6295 H       
  28 H28           -1.5223    -7.4309    -4.9688 H       
  29 H29           -1.3701    -4.4879    -4.4419 H       
  30 H30           -1.1746    -3.2879    -2.3062 H       
  31 H31            1.7566    -2.8684     1.4368 H       
  32 H32            2.1187    -1.6549     3.5447 H       
  33 H33            0.9013    -2.3179     5.5767 H       
  34 H34           -0.6862    -4.1959     5.5152 H       
  35 H35           -1.0741    -5.4168     3.4161 H       
  36 H36            0.7062    -2.3506    -1.6482 H       
  37 H37            0.2645     0.0648    -1.5474 H       
@<TRIPOS>BOND
   1    1    2 1
   2    1   23 1
   3    2    3 ar
   4    2   22 ar
   5    3    4 ar
   6    3   24 1
   7    4   25 1
   8    4    5 ar
   9    5    6 1
  10    5   21 ar
  11    6   14 2
  12    6    7 1
  13    7    8 ar
  14    7   13 ar
  15    8   26 1
  16    8    9 ar
  17    9   27 1
  18    9   10 ar
  19   10   11 1
  20   10   12 ar
  21   11   28 1
  22   12   13 ar
  23   12   29 1
  24   13   30 1
  25   14   15 1
  26   15   20 ar
  27   15   16 ar
  28   16   17 ar
  29   16   31 1
  30   17   18 ar
  31   17   32 1
  32   18   19 ar
  33   18   33 1
  34   19   34 1
  35   19   20 ar
  36   20   35 1
  37   21   36 1
  38   21   22 ar
  39   22   37 1

#	End of record

