#	Name: ASD00170463
#	Creating user name:	WinNT
#	Creation time:	15. 06. 2019 18:32

#	Modifying user name:	WinNT
#	Modification time:	15. 06. 2019 18:32

#	Program:	/corina/corina34_cracker 3.40 0067  02.08.2006

@<TRIPOS>MOLECULE
ASD00170463
  33   36    0    0    0
SMALL
NO_CHARGES


@<TRIPOS>ATOM
   1 C1            -0.0168     1.3902     0.0097 C.ar    
   2 C2             0.0021    -0.0041     0.0020 C.ar    
   3 C3             1.2212    -0.6839    -0.0133 C.ar    
   4 C4             2.3986     0.0262    -0.0208 C.ar    
   5 C5             2.3838     1.4177    -0.0132 C.ar    
   6 C6             1.1647     2.0984     0.0022 C.ar    
   7 C7             3.8465    -0.3930    -0.0374 C.3     
   8 C8             4.6430     0.8935    -0.0384 C.2     
   9 C9             3.7875     1.9337    -0.0244 C.2     
  10 S10            6.2972     1.5031    -0.0521 S.3     
  11 C11            5.6905     3.1542    -0.0374 C.2     
  12 N12            4.4007     3.1383    -0.0244 N.2     
  13 C13           -1.2716    -0.7639     0.0106 C.ar    
  14 C14           -2.4883    -0.0868     0.0264 C.ar    
  15 C15           -3.6759    -0.8035     0.0339 C.ar    
  16 C16           -3.6484    -2.1929     0.0257 C.ar    
  17 C17           -2.4402    -2.8639     0.0105 C.ar    
  18 C18           -1.2540    -2.1581    -0.0028 C.ar    
  19 N19            6.4763     4.2951    -0.0398 N.pl3   
  20 N20           -4.8990    -0.1288     0.0502 N.pl3   
  21 H21           -0.9601     1.9162     0.0170 H       
  22 H22            1.2395    -1.7637    -0.0189 H       
  23 H23            1.1482     3.1783     0.0078 H       
  24 H24            4.0791    -0.9794     0.8515 H       
  25 H25            4.0613    -0.9699    -0.9370 H       
  26 H26           -2.5072     0.9930     0.0331 H       
  27 H27           -4.5737    -2.7499     0.0316 H       
  28 H28           -2.4241    -3.9438     0.0049 H       
  29 H29           -0.3119    -2.6860    -0.0147 H       
  30 H30            7.4432     4.2180    -0.0504 H       
  31 H31            6.0597     5.1710    -0.0311 H       
  32 H32           -4.9179     0.8409     0.0562 H       
  33 H33           -5.7294    -0.6302     0.0554 H       
@<TRIPOS>BOND
   1    1    2 ar
   2    1    6 ar
   3    1   21 1
   4    2    3 ar
   5    2   13 1
   6    3    4 ar
   7    3   22 1
   8    4    5 ar
   9    4    7 1
  10    5    6 ar
  11    5    9 1
  12    6   23 1
  13    7    8 1
  14    7   24 1
  15    7   25 1
  16    8    9 2
  17    8   10 1
  18    9   12 1
  19   10   11 1
  20   11   12 2
  21   11   19 1
  22   13   14 ar
  23   13   18 ar
  24   14   15 ar
  25   14   26 1
  26   15   16 ar
  27   15   20 1
  28   16   17 ar
  29   16   27 1
  30   17   18 ar
  31   17   28 1
  32   18   29 1
  33   19   30 1
  34   19   31 1
  35   20   32 1
  36   20   33 1

#	End of record

