#	Name: ASD01912806
#	Creating user name:	WinNT
#	Creation time:	15. 06. 2019 20:00

#	Modifying user name:	WinNT
#	Modification time:	15. 06. 2019 20:00

#	Program:	/corina/corina34_cracker 3.40 0067  02.08.2006

@<TRIPOS>MOLECULE
ASD01912806
  40   43    0    0    0
SMALL
NO_CHARGES


@<TRIPOS>ATOM
   1 C1            -0.0165     1.3669     0.0096 C.2     
   2 N2             0.0021    -0.0041     0.0020 N.pl3   
   3 C3            -1.2023    -0.6921     0.0094 C.2     
   4 C4            -2.3629    -0.0499     0.0231 C.2     
   5 N5            -2.4359     1.3309     0.0307 N.am    
   6 C6            -1.3019     2.0668     0.0309 C.2     
   7 C7             1.3014     1.7836    -0.0008 C.2     
   8 C8             2.0550     0.6110    -0.0143 C.2     
   9 N9             1.2244    -0.4045    -0.0118 N.2     
  10 O10           -1.3488     3.2837     0.0376 O.2     
  11 C11           -3.6786     1.9639     0.0447 C.ar    
  12 C12            3.5595     0.5249    -0.0291 C.3     
  13 O13            4.1121     1.8427    -0.0273 O.3     
  14 C14            5.4650     1.9433    -0.0397 C.ar    
  15 C15            6.0615     3.1975    -0.0386 C.ar    
  16 C16            7.4427     3.2864    -0.0514 C.ar    
  17 C17            8.1815     2.1116    -0.0647 C.ar    
  18 C18            7.5216     0.8986    -0.0649 C.ar    
  19 N19            6.2035     0.8459    -0.0472 N.ar    
  20 N20           -3.7522     3.2855    -0.0536 N.ar    
  21 C21           -4.8421     1.2108     0.1559 C.ar    
  22 N22           -6.0190     1.8100     0.1682 N.ar    
  23 C23           -6.0945     3.1252     0.0755 C.ar    
  24 C24           -4.9349     3.8833    -0.0404 C.ar    
  25 O25           -5.0138     5.2344    -0.1351 O.3     
  26 C26           -3.7821     5.9496    -0.2517 C.3     
  27 H27           -1.1950    -1.7721     0.0035 H       
  28 H28           -3.2784    -0.6228     0.0281 H       
  29 H29            1.6684     2.7994     0.0012 H       
  30 H30            3.9013    -0.0136     0.8548 H       
  31 H31            3.8843    -0.0041    -0.9251 H       
  32 H32            5.4556     4.0915    -0.0284 H       
  33 H33            7.9343     4.2480    -0.0512 H       
  34 H34            9.2609     2.1457    -0.0752 H       
  35 H35            8.0918    -0.0186    -0.0756 H       
  36 H36           -4.7834     0.1351     0.2318 H       
  37 H37           -7.0585     3.6121     0.0859 H       
  38 H38           -3.1635     5.7529     0.6239 H       
  39 H39           -3.2560     5.6233    -1.1489 H       
  40 H40           -3.9873     7.0180    -0.3191 H       
@<TRIPOS>BOND
   1    1    2 1
   2    1    7 2
   3    1    6 1
   4    2    3 1
   5    2    9 1
   6    3    4 2
   7    3   27 1
   8    4    5 1
   9    4   28 1
  10    5    6 am
  11    5   11 1
  12    6   10 2
  13    7    8 1
  14    7   29 1
  15    8    9 2
  16    8   12 1
  17   11   21 ar
  18   11   20 ar
  19   12   13 1
  20   12   30 1
  21   12   31 1
  22   13   14 1
  23   14   15 ar
  24   14   19 ar
  25   15   16 ar
  26   15   32 1
  27   16   17 ar
  28   16   33 1
  29   17   18 ar
  30   17   34 1
  31   18   19 ar
  32   18   35 1
  33   20   24 ar
  34   21   22 ar
  35   21   36 1
  36   22   23 ar
  37   23   24 ar
  38   23   37 1
  39   24   25 1
  40   25   26 1
  41   26   38 1
  42   26   39 1
  43   26   40 1

#	End of record

