#	Name: ASD03130005
#	Creating user name:	WinNT
#	Creation time:	15. 06. 2019 20:33

#	Modifying user name:	WinNT
#	Modification time:	15. 06. 2019 20:33

#	Program:	/corina/corina34_cracker 3.40 0067  02.08.2006

@<TRIPOS>MOLECULE
ASD03130005
 363  364    0    0    0
SMALL
NO_CHARGES


@<TRIPOS>ATOM
   1 N1           -31.2454    -1.7342    -1.6943 N.am    
   2 C2           -30.8815   -57.1093    21.2091 C.2     
   3 O3           -30.9517   -57.2242    20.0088 O.2     
   4 C4           -31.7524   -57.9577    22.0995 C.3     
   5 C5           -32.6254   -58.8721    21.2376 C.3     
   6 C6           -33.5096   -59.7334    22.1415 C.3     
   7 C7           -34.3825   -60.6477    21.2796 C.3     
   8 C8           -35.2668   -61.5090    22.1835 C.3     
   9 C9           -36.1397   -62.4234    21.3216 C.3     
  10 C10          -37.0240   -63.2847    22.2255 C.3     
  11 C11          -37.8969   -64.1991    21.3636 C.3     
  12 C12          -38.7811   -65.0604    22.2676 C.3     
  13 C13          -39.6540   -65.9747    21.4056 C.3     
  14 C14          -40.5383   -66.8360    22.3096 C.3     
  15 C15          -41.4112   -67.7504    21.4477 C.3     
  16 C16          -42.2955   -68.6117    22.3516 C.3     
  17 C17          -43.1684   -69.5260    21.4897 C.3     
  18 C18          -44.0526   -70.3874    22.3936 C.3     
  19 C19          -29.0650   -55.2828    20.9178 C.3     
  20 C20          -29.9360   -56.1312    21.8081 C.2     
  21 N21          -28.2269   -54.4049    21.7453 N.3     
  22 O22          -29.8658   -56.0164    23.0085 O.2     
  23 C23          -25.2168   -53.4010    22.0697 C.3     
  24 C24          -26.5332   -52.6919    21.7454 C.3     
  25 C25          -26.2455   -51.4177    20.9940 C.2     
  26 N26          -27.3713   -53.5698    20.9179 N.3     
  27 O27          -26.6945   -51.2567    19.8789 O.2     
  28 N28          -24.4532   -56.5121    24.0955 N.pl3   
  29 C29          -23.4158   -57.3111    24.5146 C.2     
  30 N30          -22.1917   -57.0233    24.1714 N.2     
  31 N31          -23.6695   -58.4137    25.2956 N.pl3   
  32 C32          -25.4992   -54.6281    22.9389 C.3     
  33 C33          -24.1828   -55.3372    23.2633 C.3     
  34 C34          -25.2097   -49.2183    20.8308 C.3     
  35 C35          -23.9283   -48.6119    21.3421 C.2     
  36 N36          -25.4894   -50.4570    21.5612 N.am    
  37 O37          -23.3096   -49.1605    22.2294 O.2     
  38 C38          -28.4662   -49.5783    21.1685 C.ar    
  39 C39          -29.6189   -50.0861    20.5991 C.ar    
  40 C40          -29.9220   -49.8012    19.2808 C.ar    
  41 C41          -29.0727   -49.0082    18.5321 C.ar    
  42 C42          -27.9197   -48.5008    19.1014 C.ar    
  43 C43          -27.6166   -48.7856    20.4197 C.ar    
  44 C44          -26.3601   -48.2316    21.0406 C.3     
  45 C45          -21.0352   -47.5051    20.5865 C.3     
  46 C46          -22.2243   -46.8706    21.3106 C.3     
  47 C47          -22.2340   -45.3855    21.0546 C.2     
  48 N48          -23.4699   -47.4600    20.8135 N.am    
  49 O49          -23.1876   -44.8702    20.5104 O.2     
  50 C50          -20.9535   -48.9676    20.9409 C.2     
  51 N51          -21.4787   -50.0107    20.2270 N.pl3   
  52 C52          -21.1769   -51.1445    20.8958 C.2     
  53 N53          -20.5014   -50.8309    21.9674 N.2     
  54 C54          -20.3446   -49.4998    22.0177 C.2     
  55 C55          -21.9234   -42.4767    22.3230 C.3     
  56 C56          -21.1926   -43.1863    21.1814 C.3     
  57 C57          -19.7751   -42.6810    21.1015 C.2     
  58 N58          -21.1831   -44.6300    21.4303 N.am    
  59 O59          -18.8643   -43.3604    21.5256 O.2     
  60 C60          -23.3981   -42.8845    22.3158 C.3     
  61 C61          -21.2909   -42.8740    23.6583 C.3     
  62 C62          -17.5886   -41.5753    19.0612 C.3     
  63 C63          -18.1350   -41.0290    20.3818 C.3     
  64 C64          -18.0906   -39.5228    20.3590 C.2     
  65 N65          -19.5194   -41.4741    20.5588 N.am    
  66 O66          -19.1146   -38.8841    20.4789 O.2     
  67 C67          -17.5170   -43.1020    19.1315 C.3     
  68 C68          -16.9788   -43.6401    17.8309 C.2     
  69 O69          -16.6817   -42.8776    16.9357 O.2     
  70 N70          -16.8276   -44.9687    17.6623 N.am    
  71 C71          -15.5207   -36.9044    20.5494 C.3     
  72 C72          -16.8806   -37.4262    20.0809 C.3     
  73 C73          -17.0977   -37.0400    18.6405 C.2     
  74 N74          -16.9130   -38.8855    20.2054 N.am    
  75 O75          -17.2632   -37.8992    17.8006 O.2     
  76 C76          -15.3527   -37.1894    22.0196 C.2     
  77 N77          -14.2576   -36.7495    22.6704 N.am    
  78 O78          -16.2031   -37.8145    22.6172 O.2     
  79 C79          -18.8199   -35.3043    16.5941 C.3     
  80 C80          -17.3190   -35.3644    16.8853 C.3     
  81 C81          -16.7031   -34.0131    16.6292 C.2     
  82 N82          -17.1080   -35.7399    18.2856 N.am    
  83 O83          -16.1429   -33.4218    17.5279 O.2     
  84 C84          -19.4229   -36.7035    16.7333 C.3     
  85 C85          -20.9415   -36.6235    16.5651 C.3     
  86 C86          -18.8381   -37.6203    15.6570 C.3     
  87 C87          -14.6901   -32.3177    14.8292 C.3     
  88 C88          -16.1759   -32.1479    15.1526 C.3     
  89 C89          -16.8716   -31.4913    13.9881 C.2     
  90 N90          -16.7747   -33.4616    15.4015 N.am    
  91 O91          -17.7783   -32.0643    13.4219 O.2     
  92 O92          -14.5488   -33.0363    13.6022 O.3     
  93 C93          -18.4161   -28.9062    12.9405 C.3     
  94 C94          -17.1625   -29.6291    12.4439 C.3     
  95 C95          -16.2318   -28.6350    11.7984 C.2     
  96 N96          -16.4862   -30.2674    13.5759 N.am    
  97 O97          -15.1138   -28.4754    12.2404 O.2     
  98 C98          -19.4145   -29.9308    13.4830 C.3     
  99 C99          -20.6493   -29.2187    13.9721 C.2     
 100 O100         -20.7235   -28.0106    13.8945 O.2     
 101 N101         -21.6712   -29.9243    14.4959 N.am    
 102 C102         -14.8409   -27.6779     9.0936 C.3     
 103 C103         -15.7373   -26.9568    10.1024 C.3     
 104 C104         -16.5445   -25.9009     9.3922 C.2     
 105 N105         -16.6420   -27.9233    10.7299 N.am    
 106 O106         -17.7122   -26.1020     9.1335 O.2     
 107 C107         -13.9199   -28.6501     9.8335 C.3     
 108 C108         -15.7103   -28.4536     8.1020 C.3     
 109 C109         -17.4277   -22.8425     9.5729 C.3     
 110 C110         -16.7790   -23.6633     8.4565 C.3     
 111 C111         -15.8999   -22.7686     7.6211 C.2     
 112 N112         -15.9688   -24.7329     9.0444 N.am    
 113 O113         -14.7135   -23.0015     7.5262 O.2     
 114 C114         -18.4150   -23.7209    10.3440 C.3     
 115 C115         -19.0540   -22.9125    11.4436 C.2     
 116 O116         -18.7508   -21.7528    11.5951 O.2     
 117 O117         -19.9599   -23.4808    12.2548 O.3     
 118 C118         -15.4343   -21.4321     4.7640 C.3     
 119 C119         -15.5777   -20.8399     6.1674 C.3     
 120 C120         -16.1996   -19.4704     6.0735 C.2     
 121 N121         -16.4322   -21.7096     6.9795 N.am    
 122 O122         -17.2529   -19.2432     6.6302 O.2     
 123 C123         -14.6907   -22.7667     4.8472 C.3     
 124 C124         -14.5495   -23.3501     3.4649 C.2     
 125 O125         -14.9992   -22.7568     2.5074 O.2     
 126 N126         -13.9234   -24.5311     3.2926 N.am    
 127 C127         -15.0091   -16.1376     5.0917 C.3     
 128 C128         -16.1323   -17.1390     5.3683 C.3     
 129 C129         -17.1841   -17.0231     4.2953 C.2     
 130 N130         -15.5852   -18.4980     5.3710 N.am    
 131 O131         -17.4505   -17.9813     3.6012 O.2     
 132 C132         -14.0155   -16.1719     6.2242 C.2     
 133 O133         -14.1508   -16.9683     7.1228 O.2     
 134 O134         -12.9801   -15.3178     6.2347 O.3     
 135 C135         -18.8512   -15.7419     3.0638 C.3     
 136 C136         -19.4140   -14.3439     3.0610 C.2     
 137 N137         -17.8288   -15.8546     4.1070 N.am    
 138 O138         -19.0017   -13.5226     3.8524 O.2     
 139 C139         -20.0303   -11.7400     1.3272 C.3     
 140 C140         -20.9228   -12.6474     2.1763 C.3     
 141 C141         -22.3142   -12.6672     1.5978 C.2     
 142 N142         -20.3756   -14.0064     2.1791 N.am    
 143 O143         -22.8009   -13.7135     1.2245 O.2     
 144 N144         -16.4422   -10.5990     1.7623 N.pl3   
 145 C145         -15.4657    -9.8292     1.1757 C.2     
 146 N146         -15.7130    -9.2011     0.0607 N.2     
 147 N147         -14.2283    -9.7219     1.7652 N.pl3   
 148 C148         -18.6532   -11.6206     1.9833 C.3     
 149 C149         -17.7607   -10.7133     1.1341 C.3     
 150 C150         -25.3752   -11.8884     2.0331 C.3     
 151 C151         -24.3703   -11.5415     0.9328 C.3     
 152 C152         -24.6970   -10.1849     0.3636 C.2     
 153 N153         -23.0177   -11.5222     1.4952 N.am    
 154 O154         -23.8804    -9.2901     0.4220 O.2     
 155 O155         -25.3877   -10.8476     3.0122 O.3     
 156 C156         -24.9712   -13.2070     2.6956 C.3     
 157 C157         -25.6771    -8.5511    -2.1930 C.3     
 158 C158         -26.2143    -8.6473    -0.7637 C.3     
 159 C159         -27.7087    -8.4538    -0.7746 C.2     
 160 N160         -25.8967    -9.9660    -0.2103 N.am    
 161 O161         -28.4369    -9.3310    -0.3609 O.2     
 162 C162         -24.1598    -8.7476    -2.1819 C.3     
 163 C163         -26.3255    -9.6358    -3.0556 C.3     
 164 C164         -25.8842    -9.4622    -4.5103 C.3     
 165 C165         -29.6890    -7.1177    -1.2548 C.3     
 166 C166         -30.0157    -5.7611    -1.8240 C.2     
 167 N167         -28.2362    -7.3058    -1.2441 N.am    
 168 O168         -29.1229    -5.0240    -2.1852 O.2     
 169 C169         -33.0303    -4.0683    -3.0724 C.3     
 170 C170         -31.6177    -4.0482    -2.4850 C.3     
 171 C171         -31.5428    -3.0135    -1.3920 C.2     
 172 N172         -31.3001    -5.3670    -1.9317 N.am    
 173 O173         -31.7502    -3.3320    -0.2402 O.2     
 174 C174         -34.0469    -4.2800    -1.9487 C.3     
 175 C175         -33.3115    -2.7361    -3.7702 C.3     
 176 C176         -34.6721    -2.8025    -4.4668 C.3     
 177 H177         -31.0098    -1.4929    -2.6038 H       
 178 H178         -31.2708    -1.0540    -1.0032 H       
 179 H179         -31.1238   -58.5644    22.7513 H       
 180 H180         -32.3891   -57.3133    22.7057 H       
 181 H181         -33.2540   -58.2654    20.5857 H       
 182 H182         -31.9886   -59.5165    20.6314 H       
 183 H183         -32.8810   -60.3400    22.7934 H       
 184 H184         -34.1463   -59.0890    22.7477 H       
 185 H185         -35.0111   -60.0411    20.6277 H       
 186 H186         -33.7458   -61.2921    20.6734 H       
 187 H187         -34.6382   -62.1157    22.8354 H       
 188 H188         -35.9035   -60.8646    22.7897 H       
 189 H189         -36.7683   -61.8167    20.6697 H       
 190 H190         -35.5030   -63.0678    20.7154 H       
 191 H191         -36.3953   -63.8914    22.8774 H       
 192 H192         -37.6607   -62.6403    22.8317 H       
 193 H193         -38.5255   -63.5924    20.7118 H       
 194 H194         -37.2602   -64.8435    20.7575 H       
 195 H195         -38.1525   -65.6670    22.9194 H       
 196 H196         -39.4178   -64.4160    22.8737 H       
 197 H197         -40.2827   -65.3681    20.7538 H       
 198 H198         -39.0173   -66.6191    20.7995 H       
 199 H199         -39.9097   -67.4427    22.9614 H       
 200 H200         -41.1750   -66.1916    22.9158 H       
 201 H201         -42.0398   -67.1437    20.7958 H       
 202 H202         -40.7745   -68.3948    20.8415 H       
 203 H203         -41.6669   -69.2183    23.0035 H       
 204 H204         -42.9322   -67.9673    22.9578 H       
 205 H205         -43.7970   -68.9194    20.8378 H       
 206 H206         -42.5317   -70.1705    20.8835 H       
 207 H207         -43.4240   -70.9940    23.0455 H       
 208 H208         -44.6893   -69.7429    22.9998 H       
 209 H209         -44.6745   -71.0388    21.7796 H       
 210 H210         -28.4283   -55.9273    20.3116 H       
 211 H211         -29.6936   -54.6762    20.2659 H       
 212 H212         -28.7924   -53.8427    22.3634 H       
 213 H213         -24.7354   -53.7149    21.1436 H       
 214 H214         -24.5593   -52.7182    22.6078 H       
 215 H215         -27.0572   -52.4570    22.6719 H       
 216 H216         -26.8058   -54.1321    20.2997 H       
 217 H217         -25.3641   -56.7264    24.3509 H       
 218 H218         -21.4598   -57.5870    24.4671 H       
 219 H219         -24.5804   -58.6280    25.5510 H       
 220 H220         -22.9376   -58.9775    25.5913 H       
 221 H221         -25.9806   -54.3143    23.8651 H       
 222 H222         -26.1567   -55.3109    22.4009 H       
 223 H223         -23.5252   -54.6544    23.8013 H       
 224 H224         -23.7013   -55.6510    22.3371 H       
 225 H225         -25.1088   -49.4381    19.7679 H       
 226 H226         -25.1303   -50.5857    22.4530 H       
 227 H227         -28.2316   -49.7972    22.1998 H       
 228 H228         -30.2824   -50.7057    21.1841 H       
 229 H229         -30.8222   -50.1986    18.8357 H       
 230 H230         -29.3091   -48.7862    17.5020 H       
 231 H231         -27.2559   -47.8815    18.5163 H       
 232 H232         -26.5187   -48.0802    22.1083 H       
 233 H233         -26.1123   -47.2795    20.5715 H       
 234 H234         -21.1668   -47.3990    19.5097 H       
 235 H235         -20.1156   -47.0055    20.8911 H       
 236 H236         -22.1375   -47.0540    22.3815 H       
 237 H237         -23.9647   -47.0213    20.1039 H       
 238 H238         -21.9750   -49.9474    19.3960 H       
 239 H239         -21.4498   -52.1449    20.5940 H       
 240 H240         -19.8237   -48.9508    22.7882 H       
 241 H241         -21.8441   -41.3978    22.1901 H       
 242 H242         -21.7042   -42.9832    20.2406 H       
 243 H243         -20.4204   -45.0421    21.8655 H       
 244 H244         -23.9421   -42.2931    23.0523 H       
 245 H245         -23.8189   -42.7085    21.3259 H       
 246 H246         -23.4838   -43.9423    22.5643 H       
 247 H247         -21.3702   -43.9529    23.7912 H       
 248 H248         -20.2403   -42.5835    23.6634 H       
 249 H249         -21.8116   -42.3685    24.4716 H       
 250 H250         -18.2479   -41.2797    18.2451 H       
 251 H251         -16.5909   -41.1725    18.8864 H       
 252 H252         -17.5263   -41.3979    21.2072 H       
 253 H253         -20.2521   -40.9002    20.2855 H       
 254 H254         -16.8577   -43.3976    19.9476 H       
 255 H255         -18.5146   -43.5048    19.3064 H       
 256 H256         -17.0652   -45.5786    18.3782 H       
 257 H257         -16.4812   -45.3151    16.8251 H       
 258 H258         -14.7284   -37.4019    19.9900 H       
 259 H259         -15.4658   -35.8292    20.3790 H       
 260 H260         -17.6682   -36.9915    20.6963 H       
 261 H261         -16.0869   -39.3932    20.1773 H       
 262 H262         -13.5775   -36.2496    22.1925 H       
 263 H263         -14.1494   -36.9329    23.6168 H       
 264 H264         -19.3006   -34.6294    17.3022 H       
 265 H265         -18.9787   -34.9395    15.5793 H       
 266 H266         -16.8524   -36.1053    16.2362 H       
 267 H267         -16.9756   -35.0527    18.9573 H       
 268 H268         -19.1872   -37.1043    17.7192 H       
 269 H269         -21.1772   -36.2227    15.5792 H       
 270 H270         -21.3711   -37.6203    16.6643 H       
 271 H271         -21.3581   -35.9704    17.3319 H       
 272 H272         -19.2677   -38.6171    15.7561 H       
 273 H273         -19.0738   -37.2195    14.6711 H       
 274 H274         -17.7562   -37.6773    15.7768 H       
 275 H275         -14.2252   -31.3367    14.7315 H       
 276 H276         -14.2044   -32.8715    15.6327 H       
 277 H277         -16.2857   -31.5245    16.0399 H       
 278 H278         -17.2227   -33.9345    14.6828 H       
 279 H279         -13.6309   -33.1810    13.3346 H       
 280 H280         -18.1437   -28.2093    13.7332 H       
 281 H281         -18.8704   -28.3580    12.1151 H       
 282 H282         -17.4456   -30.3882    11.7148 H       
 283 H283         -15.7610   -29.8092    14.0287 H       
 284 H284         -19.6869   -30.6276    12.6903 H       
 285 H285         -18.9602   -30.4789    14.3084 H       
 286 H286         -21.6118   -30.8905    14.5580 H       
 287 H287         -22.4660   -29.4660    14.8107 H       
 288 H288         -14.2391   -26.9463     8.5544 H       
 289 H289         -15.1190   -26.4879    10.8678 H       
 290 H290         -17.5362   -28.0509    10.3764 H       
 291 H291         -13.1922   -29.0637     9.1354 H       
 292 H292         -13.3982   -28.1208    10.6309 H       
 293 H293         -14.5131   -29.4583    10.2613 H       
 294 H294         -16.3121   -29.1851     8.6412 H       
 295 H295         -16.3665   -27.7610     7.5749 H       
 296 H296         -15.0717   -28.9672     7.3834 H       
 297 H297         -16.6564   -22.4800    10.2525 H       
 298 H298         -17.9578   -21.9945     9.1394 H       
 299 H299         -17.5554   -24.0993     7.8279 H       
 300 H300         -15.0180   -24.6006     9.1835 H       
 301 H301         -19.1863   -24.0834     9.6644 H       
 302 H302         -17.8850   -24.5690    10.7775 H       
 303 H303         -20.3423   -22.9224    12.9454 H       
 304 H304         -16.4232   -21.5933     4.3348 H       
 305 H305         -14.8729   -20.7421     4.1341 H       
 306 H306         -14.5943   -20.7614     6.6309 H       
 307 H307         -17.3811   -21.5233     7.0554 H       
 308 H308         -13.7018   -22.6056     5.2764 H       
 309 H309         -15.2521   -23.4568     5.4771 H       
 310 H310         -13.5637   -25.0056     4.0584 H       
 311 H311         -13.8325   -24.9066     2.4029 H       
 312 H312         -14.5080   -16.4018     4.1605 H       
 313 H313         -15.4288   -15.1352     5.0068 H       
 314 H314         -16.5788   -16.9252     6.3393 H       
 315 H315         -14.7808   -18.6980     4.8672 H       
 316 H316         -12.3691   -15.3776     6.9819 H       
 317 H317         -19.6514   -16.4553     3.2609 H       
 318 H318         -18.4047   -15.9558     2.0928 H       
 319 H319         -17.6157   -15.0882     4.6621 H       
 320 H320         -19.9219   -12.1669     0.3302 H       
 321 H321         -20.4838   -10.7517     1.2520 H       
 322 H322         -20.9593   -12.2684     3.1977 H       
 323 H323         -20.7055   -14.6633     1.5461 H       
 324 H324         -16.2581   -11.0664     2.5921 H       
 325 H325         -15.0241    -8.6581    -0.3532 H       
 326 H326         -14.0442   -10.1894     2.5950 H       
 327 H327         -13.5393    -9.1789     1.3513 H       
 328 H328         -18.7615   -11.1937     2.9803 H       
 329 H329         -18.1997   -12.6090     2.0585 H       
 330 H330         -18.2142    -9.7250     1.0589 H       
 331 H331         -17.6524   -11.1402     0.1371 H       
 332 H332         -26.3695   -11.9900     1.5982 H       
 333 H333         -24.4244   -12.2899     0.1422 H       
 334 H334         -22.6284   -10.6854     1.7938 H       
 335 H335         -26.0038   -11.0010     3.7416 H       
 336 H336         -25.6871   -13.4541     3.4795 H       
 337 H337         -24.9617   -14.0009     1.9488 H       
 338 H338         -23.9769   -13.1054     3.1306 H       
 339 H339         -25.9134    -7.5699    -2.6048 H       
 340 H340         -25.7523    -7.8746    -0.1492 H       
 341 H341         -26.5498   -10.6817    -0.2570 H       
 342 H342         -23.7771    -8.6791    -3.2002 H       
 343 H343         -23.6978    -7.9749    -1.5674 H       
 344 H344         -23.9235    -9.7288    -1.7702 H       
 345 H345         -26.0170   -10.6178    -2.6971 H       
 346 H346         -27.4103    -9.5501    -2.9923 H       
 347 H347         -26.3461   -10.2349    -5.1248 H       
 348 H348         -26.1927    -8.4801    -4.8688 H       
 349 H349         -24.7994    -9.5478    -4.5736 H       
 350 H350         -30.0717    -7.1862    -0.2365 H       
 351 H351         -30.1510    -7.8904    -1.8693 H       
 352 H352         -27.6538    -6.6041    -1.5750 H       
 353 H353         -33.1121    -4.8810    -3.7942 H       
 354 H354         -30.9018    -3.8011    -3.2689 H       
 355 H355         -32.0141    -5.9565    -1.6428 H       
 356 H356         -33.9650    -3.4673    -1.2269 H       
 357 H357         -35.0533    -4.2943    -2.3671 H       
 358 H358         -33.8466    -5.2291    -1.4515 H       
 359 H359         -33.3199    -1.9340    -3.0322 H       
 360 H360         -32.5341    -2.5418    -4.5092 H       
 361 H361         -34.6637    -3.6046    -5.2049 H       
 362 H362         -35.4495    -2.9967    -3.7279 H       
 363 H363         -34.8724    -1.8534    -4.9640 H       
@<TRIPOS>BOND
   1    1  171 am
   2    1  177 1
   3    1  178 1
   4    2   20 1
   5    2    3 2
   6    2    4 1
   7    4    5 1
   8    4  179 1
   9    4  180 1
  10    5    6 1
  11    5  181 1
  12    5  182 1
  13    6    7 1
  14    6  183 1
  15    6  184 1
  16    7    8 1
  17    7  185 1
  18    7  186 1
  19    8    9 1
  20    8  187 1
  21    8  188 1
  22    9   10 1
  23    9  189 1
  24    9  190 1
  25   10   11 1
  26   10  191 1
  27   10  192 1
  28   11   12 1
  29   11  193 1
  30   11  194 1
  31   12   13 1
  32   12  195 1
  33   12  196 1
  34   13   14 1
  35   13  197 1
  36   13  198 1
  37   14   15 1
  38   14  199 1
  39   14  200 1
  40   15   16 1
  41   15  201 1
  42   15  202 1
  43   16   17 1
  44   16  203 1
  45   16  204 1
  46   17   18 1
  47   17  205 1
  48   17  206 1
  49   18  207 1
  50   18  208 1
  51   18  209 1
  52   19   20 1
  53   19   21 1
  54   19  210 1
  55   19  211 1
  56   20   22 2
  57   21   26 1
  58   21  212 1
  59   23   32 1
  60   23   24 1
  61   23  213 1
  62   23  214 1
  63   24   26 1
  64   24   25 1
  65   24  215 1
  66   25   27 2
  67   25   36 am
  68   26  216 1
  69   28   33 1
  70   28   29 1
  71   28  217 1
  72   29   30 2
  73   29   31 1
  74   30  218 1
  75   31  219 1
  76   31  220 1
  77   32   33 1
  78   32  221 1
  79   32  222 1
  80   33  223 1
  81   33  224 1
  82   34   35 1
  83   34   36 1
  84   34   44 1
  85   34  225 1
  86   35   37 2
  87   35   48 am
  88   36  226 1
  89   38   39 ar
  90   38   43 ar
  91   38  227 1
  92   39   40 ar
  93   39  228 1
  94   40   41 ar
  95   40  229 1
  96   41   42 ar
  97   41  230 1
  98   42   43 ar
  99   42  231 1
 100   43   44 1
 101   44  232 1
 102   44  233 1
 103   45   50 1
 104   45   46 1
 105   45  234 1
 106   45  235 1
 107   46   47 1
 108   46   48 1
 109   46  236 1
 110   47   49 2
 111   47   58 am
 112   48  237 1
 113   50   51 1
 114   50   54 2
 115   51   52 1
 116   51  238 1
 117   52   53 2
 118   52  239 1
 119   53   54 1
 120   54  240 1
 121   55   60 1
 122   55   61 1
 123   55   56 1
 124   55  241 1
 125   56   58 1
 126   56   57 1
 127   56  242 1
 128   57   59 2
 129   57   65 am
 130   58  243 1
 131   60  244 1
 132   60  245 1
 133   60  246 1
 134   61  247 1
 135   61  248 1
 136   61  249 1
 137   62   67 1
 138   62   63 1
 139   62  250 1
 140   62  251 1
 141   63   65 1
 142   63   64 1
 143   63  252 1
 144   64   66 2
 145   64   74 am
 146   65  253 1
 147   67   68 1
 148   67  254 1
 149   67  255 1
 150   68   69 2
 151   68   70 am
 152   70  256 1
 153   70  257 1
 154   71   76 1
 155   71   72 1
 156   71  258 1
 157   71  259 1
 158   72   74 1
 159   72   73 1
 160   72  260 1
 161   73   75 2
 162   73   82 am
 163   74  261 1
 164   76   77 am
 165   76   78 2
 166   77  262 1
 167   77  263 1
 168   79   84 1
 169   79   80 1
 170   79  264 1
 171   79  265 1
 172   80   82 1
 173   80   81 1
 174   80  266 1
 175   81   83 2
 176   81   90 am
 177   82  267 1
 178   84   85 1
 179   84   86 1
 180   84  268 1
 181   85  269 1
 182   85  270 1
 183   85  271 1
 184   86  272 1
 185   86  273 1
 186   86  274 1
 187   87   92 1
 188   87   88 1
 189   87  275 1
 190   87  276 1
 191   88   90 1
 192   88   89 1
 193   88  277 1
 194   89   91 2
 195   89   96 am
 196   90  278 1
 197   92  279 1
 198   93   98 1
 199   93   94 1
 200   93  280 1
 201   93  281 1
 202   94   96 1
 203   94   95 1
 204   94  282 1
 205   95   97 2
 206   95  105 am
 207   96  283 1
 208   98   99 1
 209   98  284 1
 210   98  285 1
 211   99  100 2
 212   99  101 am
 213  101  286 1
 214  101  287 1
 215  102  107 1
 216  102  108 1
 217  102  103 1
 218  102  288 1
 219  103  105 1
 220  103  104 1
 221  103  289 1
 222  104  106 2
 223  104  112 am
 224  105  290 1
 225  107  291 1
 226  107  292 1
 227  107  293 1
 228  108  294 1
 229  108  295 1
 230  108  296 1
 231  109  114 1
 232  109  110 1
 233  109  297 1
 234  109  298 1
 235  110  112 1
 236  110  111 1
 237  110  299 1
 238  111  113 2
 239  111  121 am
 240  112  300 1
 241  114  115 1
 242  114  301 1
 243  114  302 1
 244  115  116 2
 245  115  117 1
 246  117  303 1
 247  118  123 1
 248  118  119 1
 249  118  304 1
 250  118  305 1
 251  119  121 1
 252  119  120 1
 253  119  306 1
 254  120  122 2
 255  120  130 am
 256  121  307 1
 257  123  124 1
 258  123  308 1
 259  123  309 1
 260  124  125 2
 261  124  126 am
 262  126  310 1
 263  126  311 1
 264  127  132 1
 265  127  128 1
 266  127  312 1
 267  127  313 1
 268  128  129 1
 269  128  130 1
 270  128  314 1
 271  129  131 2
 272  129  137 am
 273  130  315 1
 274  132  133 2
 275  132  134 1
 276  134  316 1
 277  135  136 1
 278  135  137 1
 279  135  317 1
 280  135  318 1
 281  136  138 2
 282  136  142 am
 283  137  319 1
 284  139  148 1
 285  139  140 1
 286  139  320 1
 287  139  321 1
 288  140  142 1
 289  140  141 1
 290  140  322 1
 291  141  143 2
 292  141  153 am
 293  142  323 1
 294  144  149 1
 295  144  145 1
 296  144  324 1
 297  145  146 2
 298  145  147 1
 299  146  325 1
 300  147  326 1
 301  147  327 1
 302  148  149 1
 303  148  328 1
 304  148  329 1
 305  149  330 1
 306  149  331 1
 307  150  151 1
 308  150  155 1
 309  150  156 1
 310  150  332 1
 311  151  153 1
 312  151  152 1
 313  151  333 1
 314  152  154 2
 315  152  160 am
 316  153  334 1
 317  155  335 1
 318  156  336 1
 319  156  337 1
 320  156  338 1
 321  157  158 1
 322  157  162 1
 323  157  163 1
 324  157  339 1
 325  158  160 1
 326  158  159 1
 327  158  340 1
 328  159  161 2
 329  159  167 am
 330  160  341 1
 331  162  342 1
 332  162  343 1
 333  162  344 1
 334  163  164 1
 335  163  345 1
 336  163  346 1
 337  164  347 1
 338  164  348 1
 339  164  349 1
 340  165  166 1
 341  165  167 1
 342  165  350 1
 343  165  351 1
 344  166  168 2
 345  166  172 am
 346  167  352 1
 347  169  170 1
 348  169  174 1
 349  169  175 1
 350  169  353 1
 351  170  172 1
 352  170  171 1
 353  170  354 1
 354  171  173 2
 355  172  355 1
 356  174  356 1
 357  174  357 1
 358  174  358 1
 359  175  176 1
 360  175  359 1
 361  175  360 1
 362  176  361 1
 363  176  362 1
 364  176  363 1

#	End of record

