#	Name: ASD01141113
#	Creating user name:	WinNT
#	Creation time:	15. 06. 2019 19:01

#	Modifying user name:	WinNT
#	Modification time:	15. 06. 2019 19:01

#	Program:	/corina/corina34_cracker 3.40 0067  02.08.2006

@<TRIPOS>MOLECULE
ASD01141113
  65   69    0    0    0
SMALL
NO_CHARGES


@<TRIPOS>ATOM
   1 C1            -1.1648     1.0781    -0.5795 C.3     
   2 C2            -0.7420    -0.3839    -0.3568 C.3     
   3 C3             0.0986     1.8852    -0.8010 C.3     
   4 C4             0.2235    -0.5094     0.8168 C.3     
   5 C5             0.9280     1.8254     0.5104 C.3     
   6 C6            -0.0686     3.3559    -1.0446 C.2     
   7 C7             0.9056     1.2726    -1.9475 C.3     
   8 C8             1.4458     0.4047     0.6413 C.3     
   9 C9             0.6914    -1.9585     0.9572 C.3     
  10 H10           -0.2971    -0.2294     1.7327 H       
  11 H11            0.3096     2.0871     1.3689 H       
  12 C12            1.9899     2.8985     0.2391 C.3     
  13 O13           -0.9914     3.9004    -1.6017 O.2     
  14 C14            1.1647     4.0231    -0.4441 C.3     
  15 C15            2.3477     0.2800     1.8701 C.3     
  16 H16            1.9881     0.1255    -0.2620 H       
  17 C17            1.5979    -2.0829     2.1837 C.3     
  18 C18           -0.5247    -2.8714     1.1281 C.3     
  19 C19            2.8139    -1.1701     2.0151 C.3     
  20 H20            3.2144     0.9303     1.7522 H       
  21 C21            2.0635    -3.5327     2.3307 C.3     
  22 H22            1.0448    -1.7873     3.0752 H       
  23 C23           -0.0592    -4.3212     1.2759 C.3     
  24 C24            0.8462    -4.4437     2.5032 C.3     
  25 O25            0.1210    -4.0538     3.6712 O.3     
  26 H26           -0.6654    -4.5896     3.8429 H       
  27 C27            1.4658    -2.3688    -0.2969 C.3     
  28 O28           -0.1064    -0.8723    -1.5398 O.3     
  29 C29           -0.2298    -1.9511    -3.6775 C.ar    
  30 C30            0.2887    -3.2323    -3.7022 C.ar    
  31 C31            0.9934    -3.6716    -4.8073 C.ar    
  32 C32            1.1792    -2.8298    -5.8880 C.ar    
  33 C33            0.6599    -1.5490    -5.8637 C.ar    
  34 C34           -0.0436    -1.1092    -4.7580 C.ar    
  35 C35           -1.0034    -1.4743    -2.4753 C.3     
  36 H36           -1.8081     1.1485    -1.4565 H       
  37 H37           -1.6925     1.4493     0.2991 H       
  38 H38           -1.6287    -0.9850    -0.1553 H       
  39 H39            0.2574     1.1295    -2.8121 H       
  40 H40            1.7240     1.9415    -2.2137 H       
  41 H41            1.3102     0.3105    -1.6335 H       
  42 H42            2.4293     3.2527     1.1716 H       
  43 H43            2.7596     2.5200    -0.4335 H       
  44 H44            1.7546     4.4939    -1.2305 H       
  45 H45            0.8646     4.7669     0.2940 H       
  46 H46            1.7915     0.5736     2.7604 H       
  47 H47           -1.0788    -2.5754     2.0189 H       
  48 H48           -1.1699    -2.7845     0.2539 H       
  49 H49            3.3681    -1.4643     1.1239 H       
  50 H50            3.4586    -1.2587     2.8895 H       
  51 H51            2.6158    -3.8291     1.4390 H       
  52 H52            2.7095    -3.6201     3.2042 H       
  53 H53           -0.9261    -4.9705     1.3977 H       
  54 H54            0.4944    -4.6176     0.3850 H       
  55 H55            1.1775    -5.4767     2.6089 H       
  56 H56            2.1914    -1.5943    -0.5456 H       
  57 H57            1.9865    -3.3083    -0.1112 H       
  58 H58            0.7714    -2.4963    -1.1273 H       
  59 H59            0.1436    -3.8899    -2.8579 H       
  60 H60            1.3992    -4.6723    -4.8263 H       
  61 H61            1.7304    -3.1728    -6.7511 H       
  62 H62            0.8056    -0.8911    -6.7077 H       
  63 H63           -0.4487    -0.1082    -4.7387 H       
  64 H64           -1.5035    -2.3214    -2.0057 H       
  65 H65           -1.7469    -0.7416    -2.7889 H       
@<TRIPOS>BOND
   1    1    2 1
   2    1    3 1
   3    1   36 1
   4    1   37 1
   5    2    4 1
   6    2   28 1
   7    2   38 1
   8    3    5 1
   9    3    6 1
  10    3    7 1
  11    4    8 1
  12    4   10 1
  13    4    9 1
  14    5    8 1
  15    5   11 1
  16    5   12 1
  17    6   13 2
  18    6   14 1
  19    7   39 1
  20    7   40 1
  21    7   41 1
  22    8   15 1
  23    8   16 1
  24    9   18 1
  25    9   27 1
  26    9   17 1
  27   12   14 1
  28   12   42 1
  29   12   43 1
  30   14   44 1
  31   14   45 1
  32   15   19 1
  33   15   20 1
  34   15   46 1
  35   17   21 1
  36   17   22 1
  37   17   19 1
  38   18   23 1
  39   18   47 1
  40   18   48 1
  41   19   49 1
  42   19   50 1
  43   21   24 1
  44   21   51 1
  45   21   52 1
  46   23   24 1
  47   23   53 1
  48   23   54 1
  49   24   25 1
  50   24   55 1
  51   25   26 1
  52   27   56 1
  53   27   57 1
  54   27   58 1
  55   28   35 1
  56   29   30 ar
  57   29   34 ar
  58   29   35 1
  59   30   31 ar
  60   30   59 1
  61   31   32 ar
  62   31   60 1
  63   32   33 ar
  64   32   61 1
  65   33   34 ar
  66   33   62 1
  67   34   63 1
  68   35   64 1
  69   35   65 1

#	End of record

