#	Name: ASD03730009
#	Creating user name:	WinNT
#	Creation time:	15. 06. 2019 20:43

#	Modifying user name:	WinNT
#	Modification time:	15. 06. 2019 20:43

#	Program:	/corina/corina34_cracker 3.40 0067  02.08.2006

@<TRIPOS>MOLECULE
ASD03730009
  47   52    0    0    0
SMALL
NO_CHARGES


@<TRIPOS>ATOM
   1 C1            -0.0179     1.4712     0.0101 C.2     
   2 C2             0.0021    -0.0041     0.0020 C.ar    
   3 C3             1.2195    -0.6895    -0.0133 C.ar    
   4 C4             1.2305    -2.0686    -0.0208 C.ar    
   5 C5             0.0396    -2.7734    -0.0133 C.ar    
   6 C6            -1.1699    -2.1013     0.0019 C.ar    
   7 C7            -1.1962    -0.7224     0.0154 C.ar    
   8 O8             1.0327     2.0970     0.0035 O.co2   
   9 O9            -1.0852     2.0682     0.0184 O.co2   
  10 C10            0.0601    -4.2803    -0.0221 C.3     
  11 O11           -2.0565    -1.5356     6.2769 O.3     
  12 C12           -2.2839    -1.6211     7.6961 C.3     
  13 O13           -2.7820    -2.9590     7.8829 O.3     
  14 C14           -2.2565    -3.6916     6.8572 C.ar    
  15 C15           -1.8115    -2.8158     5.8696 C.ar    
  16 C16           -2.1188    -5.0571     6.6840 C.ar    
  17 C17           -1.5386    -5.5659     5.5259 C.ar    
  18 C18           -1.1054    -4.6814     4.5428 C.ar    
  19 C19           -1.2358    -3.3192     4.7152 C.ar    
  20 O20           -1.2957    -6.8595     5.1684 O.3     
  21 C21           -0.5595    -5.5222     3.4199 C.3     
  22 C22           -1.0842    -6.9274     3.7450 C.3     
  23 N23            0.0801    -4.7765     1.3561 N.am    
  24 C24           -1.0278    -5.0470     2.0747 C.2     
  25 C25            0.9386    -5.4854     3.3553 C.ar    
  26 C26            1.9374    -5.7971     4.2506 C.ar    
  27 C27            3.2643    -5.6555     3.8853 C.ar    
  28 C28            3.5849    -5.1996     2.6195 C.ar    
  29 C29            2.5881    -4.8852     1.7196 C.ar    
  30 C30            1.2497    -5.0251     2.0785 C.ar    
  31 O31           -2.1776    -4.9299     1.7067 O.2     
  32 H32            2.1496    -0.1407    -0.0195 H       
  33 H33            2.1708    -2.5998    -0.0330 H       
  34 H34           -2.0954    -2.6578     0.0077 H       
  35 H35           -2.1409    -0.1991     0.0321 H       
  36 H36           -0.8299    -4.6527    -0.5295 H       
  37 H37            0.9499    -4.6285    -0.5467 H       
  38 H38           -1.3514    -1.4799     8.2425 H       
  39 H39           -3.0274    -0.8883     8.0096 H       
  40 H40           -2.4638    -5.7328     7.4526 H       
  41 H41           -0.8882    -2.6435     3.9477 H       
  42 H42           -0.3398    -7.6849     3.4998 H       
  43 H43           -2.0215    -7.1209     3.2232 H       
  44 H44            1.6848    -6.1527     5.2385 H       
  45 H45            4.0480    -5.9007     4.5869 H       
  46 H46            4.6207    -5.0890     2.3345 H       
  47 H47            2.8463    -4.5293     0.7332 H       
@<TRIPOS>BOND
   1    1    2 1
   2    1    8 ar
   3    1    9 ar
   4    2    3 ar
   5    2    7 ar
   6    3    4 ar
   7    3   32 1
   8    4    5 ar
   9    4   33 1
  10    5    6 ar
  11    5   10 1
  12    6    7 ar
  13    6   34 1
  14    7   35 1
  15   10   23 1
  16   10   36 1
  17   10   37 1
  18   11   12 1
  19   11   15 1
  20   12   13 1
  21   12   38 1
  22   12   39 1
  23   13   14 1
  24   14   15 ar
  25   14   16 ar
  26   15   19 ar
  27   16   17 ar
  28   16   40 1
  29   17   18 ar
  30   17   20 1
  31   18   19 ar
  32   18   21 1
  33   19   41 1
  34   20   22 1
  35   21   22 1
  36   21   24 1
  37   21   25 1
  38   22   42 1
  39   22   43 1
  40   23   24 am
  41   23   30 1
  42   24   31 2
  43   25   26 ar
  44   25   30 ar
  45   26   27 ar
  46   26   44 1
  47   27   28 ar
  48   27   45 1
  49   28   29 ar
  50   28   46 1
  51   29   30 ar
  52   29   47 1

#	End of record

