#	Name: ASD03910097
#	Creating user name:	WinNT
#	Creation time:	15. 06. 2019 20:47

#	Modifying user name:	WinNT
#	Modification time:	15. 06. 2019 20:47

#	Program:	/corina/corina34_cracker 3.40 0067  02.08.2006

@<TRIPOS>MOLECULE
ASD03910097
  41   42    0    0    0
SMALL
NO_CHARGES


@<TRIPOS>ATOM
   1 C1             1.1263     2.2284    -1.1338 C.3     
   2 C2            -1.8556     2.6622     3.5871 C.ar    
   3 C3            -1.2620     2.2936     4.7868 C.ar    
   4 C4             0.0449     1.8253     4.7989 C.ar    
   5 C5             0.7538     1.7268     3.6179 C.ar    
   6 C6             0.1599     2.0949     2.4195 C.ar    
   7 C7            -1.1458     2.5629     2.4067 C.ar    
   8 O8             0.8583     1.9972     1.2568 O.3     
   9 C9             0.2066     2.4505     0.0686 C.3     
  10 C10           -0.1119     3.9413     0.1986 C.3     
  11 N11           -1.9816     2.3946     5.9851 N.am    
  12 C12           -1.7700     1.5051     6.9753 C.2     
  13 N13           -2.3839     1.6621     8.1648 N.am    
  14 C14           -1.7444     0.4355    11.5733 C.ar    
  15 C15           -2.0408     1.2878    10.5261 C.ar    
  16 C16           -2.0835     0.8008     9.2266 C.ar    
  17 C17           -1.8282    -0.5419     8.9817 C.ar    
  18 C18           -1.5322    -1.3909    10.0316 C.ar    
  19 C19           -1.4849    -0.9021    11.3263 C.ar    
  20 O20           -1.0254     0.5608     6.7954 O.2     
  21 Cl21          -1.6903     1.0439    13.1983 Cl      
  22 Cl22          -1.2134    -3.0698     9.7261 Cl      
  23 Cl23          -1.1123    -1.9703    12.6431 Cl      
  24 C24           -1.0728     1.6788    -0.1282 C.2     
  25 O25           -1.3936     0.8279     0.6675 O.2     
  26 O26           -1.8559     1.9366    -1.1874 O.3     
  27 H27            1.4223     1.1802    -1.1761 H       
  28 H28            0.5977     2.4939    -2.0494 H       
  29 H29            2.0139     2.8529    -1.0326 H       
  30 H30           -2.8737     3.0224     3.5765 H       
  31 H31            0.5074     1.5387     5.7319 H       
  32 H32            1.7705     1.3628     3.6272 H       
  33 H33           -1.6076     2.8492     1.4733 H       
  34 H34            0.8151     4.5142     0.1755 H       
  35 H35           -0.7505     4.2499    -0.6291 H       
  36 H36           -0.6272     4.1218     1.1420 H       
  37 H37           -2.6319     3.1048     6.1019 H       
  38 H38           -3.0338     2.3720     8.2852 H       
  39 H39           -2.2395     2.3317    10.7188 H       
  40 H40           -1.8612    -0.9227     7.9716 H       
  41 H41           -2.6664     1.4159    -1.2712 H       
@<TRIPOS>BOND
   1    1    9 1
   2    1   27 1
   3    1   28 1
   4    1   29 1
   5    2    3 ar
   6    2    7 ar
   7    2   30 1
   8    3    4 ar
   9    3   11 1
  10    4    5 ar
  11    4   31 1
  12    5    6 ar
  13    5   32 1
  14    6    7 ar
  15    6    8 1
  16    7   33 1
  17    8    9 1
  18    9   10 1
  19    9   24 1
  20   10   34 1
  21   10   35 1
  22   10   36 1
  23   11   12 am
  24   11   37 1
  25   12   13 am
  26   12   20 2
  27   13   16 1
  28   13   38 1
  29   14   15 ar
  30   14   21 1
  31   14   19 ar
  32   15   16 ar
  33   15   39 1
  34   16   17 ar
  35   17   18 ar
  36   17   40 1
  37   18   19 ar
  38   18   22 1
  39   19   23 1
  40   24   25 2
  41   24   26 1
  42   26   41 1

#	End of record

