#	Name: ASD03092796
#	Creating user name:	WinNT
#	Creation time:	15. 06. 2019 20:33

#	Modifying user name:	WinNT
#	Modification time:	15. 06. 2019 20:33

#	Program:	/corina/corina34_cracker 3.40 0067  02.08.2006

@<TRIPOS>MOLECULE
ASD03092796
  51   53    0    0    0
SMALL
NO_CHARGES


@<TRIPOS>ATOM
   1 C1            -0.0374     1.5112     0.0394 C.3     
   2 C2             0.0205    -0.0177     0.0379 C.3     
   3 C3             0.6669    -0.4947    -1.2371 C.2     
   4 O4             1.0448     0.3106    -2.0650 O.2     
   5 C5             0.8328    -1.8726    -1.4691 C.2     
   6 S6             0.3320    -3.1528    -0.3732 S.3     
   7 C7             0.9264    -4.3861    -1.4752 C.2     
   8 C8             1.4596    -3.8045    -2.5855 C.2     
   9 C9             2.0523    -4.6051    -3.7163 C.3     
  10 C10            1.4097    -2.4280    -2.5972 C.2     
  11 C11            1.9316    -1.6131    -3.7187 C.ar    
  12 C12            1.3312    -1.6855    -4.9756 C.ar    
  13 C13            1.8216    -0.9236    -6.0161 C.ar    
  14 C14            2.9069    -0.0895    -5.8149 C.ar    
  15 C15            3.5066    -0.0133    -4.5705 C.ar    
  16 C16            3.0218    -0.7659    -3.5206 C.ar    
  17 S17            3.5280     0.8795    -7.1490 S.o2    
  18 N18            2.7222     2.3259    -7.1211 N.am    
  19 O19            4.8837     1.1693    -6.8372 O.2     
  20 O20            3.1289     0.2207    -8.3432 O.2     
  21 C21            0.8577    -5.8424    -1.2325 C.ar    
  22 C22            1.2594    -6.3679    -0.0032 C.ar    
  23 C23            1.1928    -7.7282     0.2168 C.ar    
  24 C24            0.7291    -8.5710    -0.7777 C.ar    
  25 C25            0.6592   -10.0559    -0.5303 C.3     
  26 C26           -0.7088   -10.4114     0.0556 C.3     
  27 C27            0.3290    -8.0566    -1.9983 C.ar    
  28 C28            0.3855    -6.6978    -2.2295 C.ar    
  29 H29            0.9735     1.9131    -0.0280 H       
  30 H30           -0.6221     1.8534    -0.8145 H       
  31 H31           -0.5050     1.8562     0.9616 H       
  32 H32            0.6052    -0.3600     0.8918 H       
  33 H33           -0.9904    -0.4197     0.1052 H       
  34 H34            1.2659    -4.8762    -4.4208 H       
  35 H35            2.8078    -4.0082    -4.2272 H       
  36 H36            2.5119    -5.5101    -3.3189 H       
  37 H37            0.4844    -2.3369    -5.1341 H       
  38 H38            1.3576    -0.9788    -6.9898 H       
  39 H39            4.3537     0.6395    -4.4196 H       
  40 H40            3.4880    -0.7023    -2.5485 H       
  41 H41            3.1593     3.1308    -7.4404 H       
  42 H42            1.8131     2.3682    -6.7855 H       
  43 H43            1.6218    -5.7111     0.7738 H       
  44 H44            1.5035    -8.1361     1.1673 H       
  45 H45            0.8010   -10.5881    -1.4709 H       
  46 H46            1.4413   -10.3445     0.1720 H       
  47 H47           -1.4909   -10.1228    -0.6467 H       
  48 H48           -0.7594   -11.4854     0.2346 H       
  49 H49           -0.8507    -9.8792     0.9962 H       
  50 H50           -0.0319    -8.7200    -2.7703 H       
  51 H51            0.0687    -6.2971    -3.1811 H       
@<TRIPOS>BOND
   1    1    2 1
   2    1   29 1
   3    1   30 1
   4    1   31 1
   5    2    3 1
   6    2   32 1
   7    2   33 1
   8    3    4 2
   9    3    5 1
  10    5   10 2
  11    5    6 1
  12    6    7 1
  13    7    8 2
  14    7   21 1
  15    8    9 1
  16    8   10 1
  17    9   34 1
  18    9   35 1
  19    9   36 1
  20   10   11 1
  21   11   16 ar
  22   11   12 ar
  23   12   13 ar
  24   12   37 1
  25   13   14 ar
  26   13   38 1
  27   14   15 ar
  28   14   17 1
  29   15   16 ar
  30   15   39 1
  31   16   40 1
  32   17   18 am
  33   17   19 2
  34   17   20 2
  35   18   41 1
  36   18   42 1
  37   21   28 ar
  38   21   22 ar
  39   22   23 ar
  40   22   43 1
  41   23   24 ar
  42   23   44 1
  43   24   25 1
  44   24   27 ar
  45   25   26 1
  46   25   45 1
  47   25   46 1
  48   26   47 1
  49   26   48 1
  50   26   49 1
  51   27   28 ar
  52   27   50 1
  53   28   51 1

#	End of record

