#	Name: ASD05430569
#	Creating user name:	WinNT
#	Creation time:	15. 06. 2019 21:00

#	Modifying user name:	WinNT
#	Modification time:	15. 06. 2019 21:00

#	Program:	/corina/corina34_cracker 3.40 0067  02.08.2006

@<TRIPOS>MOLECULE
ASD05430569
  32   32    0    0    0
SMALL
NO_CHARGES


@<TRIPOS>ATOM
   1 C1            -0.0168     1.3905     0.0097 C.ar    
   2 C2             0.0021    -0.0041     0.0020 C.ar    
   3 C3             1.2054     2.0576     0.0016 C.ar    
   4 N4             2.3275     1.3664    -0.0128 N.ar    
   5 N5             2.3412     0.0833    -0.0198 N.ar    
   6 C6             1.2336    -0.6349    -0.0131 C.ar    
   7 C7             1.2450     3.5640     0.0088 C.3     
   8 C8             1.3102    -2.1400    -0.0214 C.3     
   9 C9             1.2240    -2.6629     1.4138 C.3     
  10 C10            0.1484    -2.7053    -0.8409 C.3     
  11 C11            1.9911     4.0486     1.2536 C.3     
  12 C12            1.9677     4.0612    -1.2448 C.3     
  13 O13           -1.1889     2.0754     0.0190 O.3     
  14 C14           -2.3914     1.3033     0.0206 C.3     
  15 H15           -0.9155    -0.5736     0.0081 H       
  16 H16            0.2273     3.9542     0.0203 H       
  17 H17            2.2548    -2.4532    -0.4662 H       
  18 H18            0.2795    -2.3497     1.8585 H       
  19 H19            1.2794    -3.7515     1.4078 H       
  20 H20            2.0517    -2.2602     1.9976 H       
  21 H21            0.2098    -2.3327    -1.8634 H       
  22 H22            0.2038    -3.7938    -0.8469 H       
  23 H23           -0.7962    -2.3920    -0.3961 H       
  24 H24            3.0088     3.6585     1.2421 H       
  25 H25            2.0197     5.1383     1.2588 H       
  26 H26            1.4762     3.6944     2.1466 H       
  27 H27            1.4361     3.7160    -2.1316 H       
  28 H28            1.9963     5.1508    -1.2395 H       
  29 H29            2.9854     3.6711    -1.2563 H       
  30 H30           -3.2524     1.9718     0.0284 H       
  31 H31           -2.4239     0.6795    -0.8726 H       
  32 H32           -2.4153     0.6698     0.9073 H       
@<TRIPOS>BOND
   1    1    2 ar
   2    1    3 ar
   3    1   13 1
   4    2    6 ar
   5    2   15 1
   6    3    4 ar
   7    3    7 1
   8    4    5 ar
   9    5    6 ar
  10    6    8 1
  11    7   11 1
  12    7   12 1
  13    7   16 1
  14    8    9 1
  15    8   10 1
  16    8   17 1
  17    9   18 1
  18    9   19 1
  19    9   20 1
  20   10   21 1
  21   10   22 1
  22   10   23 1
  23   11   24 1
  24   11   25 1
  25   11   26 1
  26   12   27 1
  27   12   28 1
  28   12   29 1
  29   13   14 1
  30   14   30 1
  31   14   31 1
  32   14   32 1

#	End of record

