#	Name: ASD04910082
#	Creating user name:	WinNT
#	Creation time:	15. 06. 2019 20:55

#	Modifying user name:	WinNT
#	Modification time:	15. 06. 2019 20:55

#	Program:	/corina/corina34_cracker 3.40 0067  02.08.2006

@<TRIPOS>MOLECULE
ASD04910082
  59   61    0    0    0
SMALL
NO_CHARGES


@<TRIPOS>ATOM
   1 C1            -0.2905     1.3047     0.9760 C.2     
   2 C2            -0.2233    -0.1951     0.8448 C.3     
   3 C3             1.2358    -0.6286     0.6892 C.3     
   4 O4             0.7245     1.9596     0.9479 O.2     
   5 O5            -1.4783     1.9133     1.1184 O.3     
   6 C6             2.4934    -2.6973     0.4130 C.2     
   7 C7             2.5593    -4.1686     0.2843 C.ar    
   8 C8             3.7924    -4.8042     0.1303 C.ar    
   9 C9             3.8469    -6.1775     0.0112 C.ar    
  10 C10            2.6828    -6.9246     0.0437 C.ar    
  11 C11            1.4573    -6.3008     0.1962 C.ar    
  12 C12            1.3892    -4.9287     0.3221 C.ar    
  13 O13            3.5144    -2.0384     0.3848 O.2     
  14 N14            1.3011    -2.0866     0.5616 N.am    
  15 C15            2.7500    -8.4243    -0.0879 C.3     
  16 C16            2.4077    -8.8261    -1.5240 C.3     
  17 C17            2.6045   -10.3340    -1.6925 C.3     
  18 C18            2.1535   -10.7539    -3.0929 C.3     
  19 N19            1.7905    -9.0389     0.8329 N.pl3   
  20 C20            2.1581    -9.2947     2.1574 C.ar    
  21 C21            1.2953    -9.9885     2.9963 C.ar    
  22 C22            1.6589   -10.2413     4.3038 C.ar    
  23 C23            2.8864    -9.8018     4.7805 C.ar    
  24 C24            3.7488    -9.1080     3.9426 C.ar    
  25 C25            3.3887    -8.8602     2.6332 C.ar    
  26 C26            2.5188   -10.7213     7.0388 C.2     
  27 N27            3.1938   -10.7591     8.1556 N.2     
  28 C28            4.3677   -10.1329     7.9864 C.2     
  29 C29            4.4274    -9.6877     6.7167 C.2     
  30 N30            3.2555   -10.0587     6.1103 N.pl3   
  31 C31            5.4350    -9.9574     9.0357 C.3     
  32 F32            5.0677   -10.6493    10.1948 F       
  33 F33            6.6482   -10.4624     8.5558 F       
  34 F34            5.5799    -8.5975     9.3306 F       
  35 H35           -0.6464    -0.6572     1.7367 H       
  36 H36           -0.7909    -0.5090    -0.0312 H       
  37 H37            1.6590    -0.1665    -0.2027 H       
  38 H38            1.8034    -0.3147     1.5652 H       
  39 H39           -1.4710     2.8770     1.1988 H       
  40 H40            4.7017    -4.2221     0.1040 H       
  41 H41            4.8004    -6.6706    -0.1081 H       
  42 H42            0.5523    -6.8897     0.2208 H       
  43 H43            0.4323    -4.4433     0.4455 H       
  44 H44            0.4863    -2.6124     0.5842 H       
  45 H45            3.7563    -8.7657     0.1548 H       
  46 H46            1.3697    -8.5693    -1.7355 H       
  47 H47            3.0616    -8.2948    -2.2156 H       
  48 H48            3.6583   -10.5797    -1.5612 H       
  49 H49            2.0122   -10.8633    -0.9461 H       
  50 H50            2.7458   -10.2245    -3.8393 H       
  51 H51            2.2937   -11.8281    -3.2129 H       
  52 H52            1.0997   -10.5081    -3.2242 H       
  53 H53            0.9002    -9.2682     0.5238 H       
  54 H54            0.3400   -10.3298     2.6257 H       
  55 H55            0.9881   -10.7807     4.9561 H       
  56 H56            4.7034    -8.7657     4.3141 H       
  57 H57            4.0617    -8.3246     1.9801 H       
  58 H58            1.5402   -11.1493     6.8789 H       
  59 H59            5.2421    -9.1424     6.2635 H       
@<TRIPOS>BOND
   1    1    2 1
   2    1    4 2
   3    1    5 1
   4    2    3 1
   5    2   35 1
   6    2   36 1
   7    3   14 1
   8    3   37 1
   9    3   38 1
  10    5   39 1
  11    6    7 1
  12    6   13 2
  13    6   14 am
  14    7    8 ar
  15    7   12 ar
  16    8    9 ar
  17    8   40 1
  18    9   10 ar
  19    9   41 1
  20   10   11 ar
  21   10   15 1
  22   11   12 ar
  23   11   42 1
  24   12   43 1
  25   14   44 1
  26   15   16 1
  27   15   19 1
  28   15   45 1
  29   16   17 1
  30   16   46 1
  31   16   47 1
  32   17   18 1
  33   17   48 1
  34   17   49 1
  35   18   50 1
  36   18   51 1
  37   18   52 1
  38   19   20 1
  39   19   53 1
  40   20   21 ar
  41   20   25 ar
  42   21   22 ar
  43   21   54 1
  44   22   23 ar
  45   22   55 1
  46   23   24 ar
  47   23   30 1
  48   24   25 ar
  49   24   56 1
  50   25   57 1
  51   26   27 2
  52   26   30 1
  53   26   58 1
  54   27   28 1
  55   28   29 2
  56   28   31 1
  57   29   30 1
  58   29   59 1
  59   31   32 1
  60   31   33 1
  61   31   34 1

#	End of record

