#	Name: ASD01200196
#	Creating user name:	WinNT
#	Creation time:	15. 06. 2019 19:08

#	Modifying user name:	WinNT
#	Modification time:	15. 06. 2019 19:08

#	Program:	/corina/corina34_cracker 3.40 0067  02.08.2006

@<TRIPOS>MOLECULE
ASD01200196
  55   57    0    0    0
SMALL
NO_CHARGES


@<TRIPOS>ATOM
   1 C1             0.9789     1.3638    -1.7311 C.2     
   2 C2             0.8671    -0.1358    -1.6319 C.3     
   3 O3             1.5853     1.9841    -0.8836 O.2     
   4 N4             0.4096     2.0151    -2.7647 N.am    
   5 C5             0.4226     3.4085    -2.8027 C.ar    
   6 C6            -0.0634     4.0716    -3.9240 C.ar    
   7 C7            -0.0447     5.4548    -3.9486 C.ar    
   8 C8             0.4615     6.1301    -2.8462 C.ar    
   9 C9             0.9278     5.4072    -1.7662 C.ar    
  10 N10            0.8924     4.0883    -1.7688 N.ar    
  11 S11            1.7365    -0.7100    -0.1470 S.3     
  12 N12            2.5850    -3.2590    -0.4093 N.am    
  13 C13            1.3697    -2.4863    -0.1206 C.3     
  14 C14            0.9321    -2.9076     1.2630 C.2     
  15 C15            1.8082    -3.8116     1.6896 C.2     
  16 C16            2.8318    -4.0343     0.6633 C.2     
  17 O17            3.7660    -4.8061     0.7659 O.2     
  18 C18            1.7571    -4.5042     3.0270 C.3     
  19 C19           -0.2697    -2.3989     2.0166 C.3     
  20 C20            3.3783    -3.2013    -1.6395 C.3     
  21 C21            4.4430    -2.1439    -1.5016 C.ar    
  22 C22            5.6841    -2.4770    -0.9907 C.ar    
  23 C23            6.6622    -1.5104    -0.8629 C.ar    
  24 C24            6.3981    -0.2022    -1.2483 C.ar    
  25 C25            5.1503     0.1291    -1.7610 C.ar    
  26 C26            4.1786    -0.8437    -1.8914 C.ar    
  27 N27            7.3848     0.7780    -1.1200 N.pl3   
  28 C28            8.7000     0.4270    -0.5785 C.3     
  29 C29            7.1045     2.1572    -1.5269 C.3     
  30 H30           -0.1837    -0.4185    -1.5698 H       
  31 H31            1.3148    -0.5926    -2.5145 H       
  32 H32           -0.0091     1.5142    -3.4821 H       
  33 H33           -0.4500     3.5144    -4.7646 H       
  34 H34           -0.4152     5.9969    -4.8061 H       
  35 H35            0.4906     7.2096    -2.8337 H       
  36 H36            1.3228     5.9281    -0.9066 H       
  37 H37            0.5934    -2.7203    -0.8492 H       
  38 H38            1.1718    -5.4196     2.9400 H       
  39 H39            2.7694    -4.7493     3.3482 H       
  40 H40            1.2929    -3.8445     3.7602 H       
  41 H41           -1.1095    -3.0760     1.8610 H       
  42 H42           -0.0366    -2.3475     3.0802 H       
  43 H43           -0.5321    -1.4051     1.6538 H       
  44 H44            3.8480    -4.1692    -1.8147 H       
  45 H45            2.7287    -2.9554    -2.4796 H       
  46 H46            5.8887    -3.4943    -0.6910 H       
  47 H47            7.6311    -1.7712    -0.4636 H       
  48 H48            4.9417     1.1452    -2.0616 H       
  49 H49            3.2099    -0.5878    -2.2944 H       
  50 H50            9.3601     0.1279    -1.3927 H       
  51 H51            9.1239     1.2902    -0.0655 H       
  52 H52            8.5946    -0.3984     0.1255 H       
  53 H53            6.2699     2.5457    -0.9432 H       
  54 H54            7.9868     2.7735    -1.3540 H       
  55 H55            6.8482     2.1786    -2.5861 H       
@<TRIPOS>BOND
   1    1    2 1
   2    1    3 2
   3    1    4 am
   4    2   11 1
   5    2   30 1
   6    2   31 1
   7    4    5 1
   8    4   32 1
   9    5    6 ar
  10    5   10 ar
  11    6    7 ar
  12    6   33 1
  13    7    8 ar
  14    7   34 1
  15    8    9 ar
  16    8   35 1
  17    9   10 ar
  18    9   36 1
  19   11   13 1
  20   12   13 1
  21   12   16 am
  22   12   20 1
  23   13   14 1
  24   13   37 1
  25   14   15 2
  26   14   19 1
  27   15   16 1
  28   15   18 1
  29   16   17 2
  30   18   38 1
  31   18   39 1
  32   18   40 1
  33   19   41 1
  34   19   42 1
  35   19   43 1
  36   20   21 1
  37   20   44 1
  38   20   45 1
  39   21   22 ar
  40   21   26 ar
  41   22   23 ar
  42   22   46 1
  43   23   24 ar
  44   23   47 1
  45   24   25 ar
  46   24   27 1
  47   25   26 ar
  48   25   48 1
  49   26   49 1
  50   27   28 1
  51   27   29 1
  52   28   50 1
  53   28   51 1
  54   28   52 1
  55   29   53 1
  56   29   54 1
  57   29   55 1

#	End of record

