#	Name: ASD00100124
#	Creating user name:	WinNT
#	Creation time:	15. 06. 2019 18:30

#	Modifying user name:	WinNT
#	Modification time:	15. 06. 2019 18:30

#	Program:	/corina/corina34_cracker 3.40 0067  02.08.2006

@<TRIPOS>MOLECULE
ASD00100124
  43   45    0    0    0
SMALL
NO_CHARGES


@<TRIPOS>ATOM
   1 C1             6.1369     4.2907    -1.2676 C.1     
   2 C2             4.8360     4.8202    -0.9887 C.ar    
   3 C3             3.7270     3.9694    -0.9537 C.ar    
   4 C4             2.4819     4.4775    -0.6866 C.ar    
   5 C5             2.3211     5.8440    -0.4502 C.ar    
   6 C6             3.4275     6.6945    -0.4850 C.ar    
   7 C7             4.6746     6.1877    -0.7457 C.ar    
   8 N8             7.1690     3.8706    -1.4888 N.1     
   9 C9            -1.1688     6.4960     0.1768 C.2     
  10 N10           -0.1798     5.6818    -0.0989 N.2     
  11 C11            0.9752     6.3919    -0.1628 C.2     
  12 C12            0.6781     7.6934     0.0843 C.2     
  13 N13           -0.6756     7.7591     0.2987 N.pl3   
  14 C14           -1.4481     8.9662     0.6024 C.3     
  15 C15           -1.5458     9.1374     2.0965 C.ar    
  16 C16           -0.5276     9.7726     2.7906 C.ar    
  17 C17           -0.6200     9.9289     4.1664 C.ar    
  18 C18           -1.7255     9.4522     4.8444 C.ar    
  19 C19           -2.7416     8.8188     4.1548 C.ar    
  20 C20           -2.6567     8.6651     2.7783 C.ar    
  21 O21           -3.6589     8.0470     2.0998 O.3     
  22 C22           -4.7730     7.5855     2.8666 C.3     
  23 O23            0.5601    10.2413     2.1244 O.3     
  24 C24            1.5704    10.8850     2.9035 C.3     
  25 N25           -2.4972     6.1327     0.3154 N.pl3   
  26 H26            3.8511     2.9123    -1.1372 H       
  27 H27            1.6252     3.8205    -0.6595 H       
  28 H28            3.3018     7.7514    -0.3020 H       
  29 H29            5.5311     6.8451    -0.7677 H       
  30 H30            1.3740     8.5190     0.1076 H       
  31 H31           -0.9512     9.8342     0.1690 H       
  32 H32           -2.4490     8.8727     0.1812 H       
  33 H33            0.1731    10.4234     4.7077 H       
  34 H34           -1.7954     9.5745     5.9152 H       
  35 H35           -3.6048     8.4470     4.6870 H       
  36 H36           -5.4987     7.1127     2.2048 H       
  37 H37           -4.4303     6.8619     3.6062 H       
  38 H38           -5.2399     8.4300     3.3736 H       
  39 H39            2.3803    11.2106     2.2507 H       
  40 H40            1.1424    11.7498     3.4105 H       
  41 H41            1.9592    10.1856     3.6437 H       
  42 H42           -2.7462     5.1952     0.3145 H       
  43 H43           -3.1791     6.8155     0.4135 H       
@<TRIPOS>BOND
   1    1    2 1
   2    1    8 3
   3    2    3 ar
   4    2    7 ar
   5    3    4 ar
   6    3   26 1
   7    4    5 ar
   8    4   27 1
   9    5    6 ar
  10    5   11 1
  11    6    7 ar
  12    6   28 1
  13    7   29 1
  14    9   10 2
  15    9   13 1
  16    9   25 1
  17   10   11 1
  18   11   12 2
  19   12   13 1
  20   12   30 1
  21   13   14 1
  22   14   15 1
  23   14   31 1
  24   14   32 1
  25   15   16 ar
  26   15   20 ar
  27   16   17 ar
  28   16   23 1
  29   17   18 ar
  30   17   33 1
  31   18   19 ar
  32   18   34 1
  33   19   20 ar
  34   19   35 1
  35   20   21 1
  36   21   22 1
  37   22   36 1
  38   22   37 1
  39   22   38 1
  40   23   24 1
  41   24   39 1
  42   24   40 1
  43   24   41 1
  44   25   42 1
  45   25   43 1

#	End of record

