#	Name: ASD02500273
#	Creating user name:	WinNT
#	Creation time:	15. 06. 2019 20:22

#	Modifying user name:	WinNT
#	Modification time:	15. 06. 2019 20:22

#	Program:	/corina/corina34_cracker 3.40 0067  02.08.2006

@<TRIPOS>MOLECULE
ASD02500273
  63   67    0    0    0
SMALL
NO_CHARGES


@<TRIPOS>ATOM
   1 N1            -3.0414     5.5462    -0.6516 N.ar    
   2 C2            -4.1390     6.1665    -1.0104 C.ar    
   3 C3            -5.3253     6.0326    -0.2918 C.ar    
   4 C4            -5.3639     5.2377     0.8181 C.ar    
   5 C5            -4.1833     4.5727     1.2002 C.ar    
   6 C6            -4.1462     3.7395     2.3295 C.ar    
   7 C7            -2.9845     3.1140     2.6664 C.ar    
   8 C8            -1.8311     3.2902     1.9052 C.ar    
   9 C9            -1.8314     4.0907     0.8044 C.ar    
  10 C10           -3.0113     4.7534     0.4244 C.ar    
  11 S11           -0.3582     4.2962    -0.1400 S.o2    
  12 O12           -0.1309     5.6961    -0.2294 O.2     
  13 O13            0.5928     3.3871     0.3969 O.2     
  14 N14           -0.6853     3.7765    -1.6780 N.am    
  15 C15           -0.9444     2.4290    -1.9175 C.ar    
  16 C16           -0.5062     1.8348    -3.1028 C.ar    
  17 C17           -0.7624     0.4999    -3.3408 C.ar    
  18 C18           -1.4610    -0.2549    -2.3931 C.ar    
  19 C19           -1.8969     0.3450    -1.2091 C.ar    
  20 C20           -1.6337     1.6765    -0.9736 C.ar    
  21 O21            0.1726     2.5717    -4.0227 O.3     
  22 C22            0.5908     1.8992    -5.2122 C.3     
  23 C23           -1.7376    -1.6822    -2.6436 C.2     
  24 O24           -2.1297    -2.0428    -3.7366 O.2     
  25 N25           -1.5556    -2.5864    -1.6609 N.am    
  26 C26           -1.6891    -4.0244    -1.9335 C.3     
  27 C27           -0.3969    -4.7275    -1.4996 C.3     
  28 N28           -0.0610    -4.2932    -0.1364 N.am    
  29 C29            0.0726    -2.8553     0.1362 C.3     
  30 C30           -1.2141    -2.1524    -0.2990 C.3     
  31 C31            0.6642    -4.7690     2.1552 C.ar    
  32 C32            0.6946    -5.6698     3.2184 C.ar    
  33 C33            1.2105    -5.2577     4.4355 C.ar    
  34 C34            1.6798    -3.9553     4.5488 C.ar    
  35 C35            1.6181    -3.1124     3.4469 C.ar    
  36 N36            1.1227    -3.5321     2.3038 N.ar    
  37 C37            0.1210    -5.1975     0.8463 C.2     
  38 O38           -0.1607    -6.3645     0.6579 O.2     
  39 F39            2.1906    -3.5131     5.7188 F       
  40 H40           -4.1234     6.7985    -1.8860 H       
  41 H41           -6.2133     6.5572    -0.6120 H       
  42 H42           -6.2746     5.1228     1.3871 H       
  43 H43           -5.0338     3.5958     2.9278 H       
  44 H44           -2.9569     2.4733     3.5353 H       
  45 H45           -0.9218     2.7836     2.1935 H       
  46 H46           -0.6966     4.4105    -2.4120 H       
  47 H47           -0.4244     0.0391    -4.2572 H       
  48 H48           -2.4368    -0.2364    -0.4763 H       
  49 H49           -1.9675     2.1378    -0.0559 H       
  50 H50            1.1195     2.5995    -5.8588 H       
  51 H51            1.2543     1.0753    -4.9495 H       
  52 H52           -0.2825     1.5098    -5.7355 H       
  53 H53           -2.5313    -4.4268    -1.3705 H       
  54 H54           -1.8505    -4.1811    -3.0000 H       
  55 H55           -0.5456    -5.8072    -1.5134 H       
  56 H56            0.4118    -4.4584    -2.1791 H       
  57 H57            0.2340    -2.6985     1.2027 H       
  58 H58            0.9147    -2.4529    -0.4268 H       
  59 H59           -1.0619    -1.0732    -0.2863 H       
  60 H60           -2.0217    -2.4185     0.3831 H       
  61 H61            0.3205    -6.6754     3.0947 H       
  62 H62            1.2468    -5.9332     5.2773 H       
  63 H63            1.9818    -2.0988     3.5301 H       
@<TRIPOS>BOND
   1    1    2 ar
   2    1   10 ar
   3    2    3 ar
   4    2   40 1
   5    3    4 ar
   6    3   41 1
   7    4    5 ar
   8    4   42 1
   9    5    6 ar
  10    5   10 ar
  11    6    7 ar
  12    6   43 1
  13    7    8 ar
  14    7   44 1
  15    8    9 ar
  16    8   45 1
  17    9   10 ar
  18    9   11 1
  19   11   12 2
  20   11   13 2
  21   11   14 am
  22   14   15 1
  23   14   46 1
  24   15   16 ar
  25   15   20 ar
  26   16   17 ar
  27   16   21 1
  28   17   18 ar
  29   17   47 1
  30   18   19 ar
  31   18   23 1
  32   19   20 ar
  33   19   48 1
  34   20   49 1
  35   21   22 1
  36   22   50 1
  37   22   51 1
  38   22   52 1
  39   23   24 2
  40   23   25 am
  41   25   26 1
  42   25   30 1
  43   26   27 1
  44   26   53 1
  45   26   54 1
  46   27   28 1
  47   27   55 1
  48   27   56 1
  49   28   29 1
  50   28   37 am
  51   29   30 1
  52   29   57 1
  53   29   58 1
  54   30   59 1
  55   30   60 1
  56   31   32 ar
  57   31   36 ar
  58   31   37 1
  59   32   33 ar
  60   32   61 1
  61   33   34 ar
  62   33   62 1
  63   34   35 ar
  64   34   39 1
  65   35   36 ar
  66   35   63 1
  67   37   38 2

#	End of record

