#	Name: ASD01814799
#	Creating user name:	WinNT
#	Creation time:	15. 06. 2019 19:33

#	Modifying user name:	WinNT
#	Modification time:	15. 06. 2019 19:33

#	Program:	/corina/corina34_cracker 3.40 0067  02.08.2006

@<TRIPOS>MOLECULE
ASD01814799
  62   67    0    0    0
SMALL
NO_CHARGES


@<TRIPOS>ATOM
   1 C1            -0.0169     1.3972     0.0097 C.2     
   2 C2             0.0021    -0.0041     0.0020 C.2     
   3 C3             1.1986    -0.6593    -0.0129 C.2     
   4 C4             2.3918     0.0821    -0.0204 C.2     
   5 N5             2.3437     1.4497    -0.0122 N.am    
   6 C6             1.1421     2.0937     0.0024 C.2     
   7 C7             3.6227    -0.5889    -0.0356 C.2     
   8 C8             4.7877     0.1218    -0.0425 C.2     
   9 C9             4.7345     1.5280    -0.0346 C.2     
  10 C10            3.4812     2.1736    -0.0189 C.2     
  11 O11            3.4258     3.3917    -0.0123 O.2     
  12 C12            5.9703     2.3140    -0.0413 C.2     
  13 O13            5.9124     3.6618    -0.0337 O.3     
  14 O14            7.0487     1.7516    -0.0537 O.2     
  15 C15            3.6593    -2.0954    -0.0439 C.3     
  16 N16            3.7787    -2.5747    -1.4274 N.3     
  17 C17            4.0550    -4.0176    -1.4629 C.3     
  18 C18            4.0930    -4.4914    -2.9177 C.3     
  19 N19            5.1256    -3.7424    -3.6473 N.3     
  20 C20            4.8494    -2.2994    -3.6118 C.3     
  21 C21            4.8113    -1.8256    -2.1570 C.3     
  22 H22            5.0173    -4.2153    -0.9907 H       
  23 H23            4.3265    -5.5557    -2.9475 H       
  24 H24            3.1221    -4.3186    -3.3819 H       
  25 C25            5.2450    -4.2217    -5.0307 C.3     
  26 C26            6.3271    -3.4198    -5.7567 C.3     
  27 C27            6.4515    -3.9190    -7.1976 C.3     
  28 C28            6.8317    -5.4010    -7.1929 C.3     
  29 C29            5.7496    -6.2028    -6.4669 C.3     
  30 C30            5.6253    -5.7036    -5.0260 C.3     
  31 C31            4.4117    -6.0219    -7.1866 C.3     
  32 C32            3.9070    -4.0407    -5.7504 C.3     
  33 C33            4.0314    -4.5399    -7.1914 C.3     
  34 C34            5.1135    -3.7381    -7.9173 C.3     
  35 H35           -0.9605     1.9226     0.0170 H       
  36 H36           -0.9233    -0.5609     0.0082 H       
  37 H37            1.2282    -1.7389    -0.0187 H       
  38 H38            1.1156     3.1733     0.0087 H       
  39 H39            5.7393    -0.3889    -0.0536 H       
  40 H40            6.7544     4.1373    -0.0385 H       
  41 H41            4.5153    -2.4412     0.5356 H       
  42 H42            2.7412    -2.4836     0.3971 H       
  43 H43            3.2701    -4.5514    -0.9270 H       
  44 H44            5.6342    -1.7656    -4.1477 H       
  45 H45            3.8870    -2.1017    -4.0839 H       
  46 H46            4.5779    -0.7613    -2.1271 H       
  47 H47            5.7823    -1.9984    -1.6927 H       
  48 H48            6.0563    -2.3640    -5.7600 H       
  49 H49            7.2803    -3.5487    -5.2439 H       
  50 H50            7.2224    -3.3477    -7.7147 H       
  51 H51            6.9204    -5.7566    -8.2194 H       
  52 H52            7.7849    -5.5299    -6.6801 H       
  53 H53            6.0205    -7.2586    -6.4636 H       
  54 H54            6.5784    -5.8326    -4.5133 H       
  55 H55            4.8543    -6.2749    -4.5089 H       
  56 H56            4.5003    -6.3775    -8.2132 H       
  57 H57            3.6407    -6.5931    -6.6695 H       
  58 H58            3.1361    -4.6120    -5.2333 H       
  59 H59            3.6362    -2.9849    -5.7538 H       
  60 H60            3.0782    -4.4110    -7.7041 H       
  61 H61            4.8427    -2.6823    -7.9206 H       
  62 H62            5.2022    -4.0937    -8.9438 H       
@<TRIPOS>BOND
   1    1    2 1
   2    1    6 2
   3    1   35 1
   4    2    3 2
   5    2   36 1
   6    3    4 1
   7    3   37 1
   8    4    5 1
   9    4    7 2
  10    5    6 1
  11    5   10 am
  12    6   38 1
  13    7   15 1
  14    7    8 1
  15    8    9 2
  16    8   39 1
  17    9   10 1
  18    9   12 1
  19   10   11 2
  20   12   13 1
  21   12   14 2
  22   13   40 1
  23   15   16 1
  24   15   41 1
  25   15   42 1
  26   16   17 1
  27   16   21 1
  28   17   18 1
  29   17   22 1
  30   17   43 1
  31   18   19 1
  32   18   23 1
  33   18   24 1
  34   19   20 1
  35   19   25 1
  36   20   21 1
  37   20   44 1
  38   20   45 1
  39   21   46 1
  40   21   47 1
  41   25   26 1
  42   25   32 1
  43   25   30 1
  44   26   27 1
  45   26   48 1
  46   26   49 1
  47   27   28 1
  48   27   34 1
  49   27   50 1
  50   28   29 1
  51   28   51 1
  52   28   52 1
  53   29   30 1
  54   29   31 1
  55   29   53 1
  56   30   54 1
  57   30   55 1
  58   31   33 1
  59   31   56 1
  60   31   57 1
  61   32   33 1
  62   32   58 1
  63   32   59 1
  64   33   34 1
  65   33   60 1
  66   34   61 1
  67   34   62 1

#	End of record

