#	Name: ASD01900452
#	Creating user name:	WinNT
#	Creation time:	15. 06. 2019 19:51

#	Modifying user name:	WinNT
#	Modification time:	15. 06. 2019 19:51

#	Program:	/corina/corina34_cracker 3.40 0067  02.08.2006

@<TRIPOS>MOLECULE
ASD01900452
  26   28    0    0    0
SMALL
NO_CHARGES


@<TRIPOS>ATOM
   1 C1            -0.0261     1.3950     0.1250 C.ar    
   2 C2             0.0067     0.0005    -0.0664 C.ar    
   3 C3             1.2238    -0.6702     0.0490 C.ar    
   4 C4             2.3513     0.0690     0.3481 C.ar    
   5 C5             2.2455     1.4426     0.5238 C.ar    
   6 N6             1.0910     2.0592     0.4119 N.ar    
   7 N7            -2.1141     0.7224    -0.3298 N.2     
   8 N8            -1.2748    -0.3965    -0.3432 N.pl3   
   9 C9            -1.4234     1.7966    -0.0538 C.2     
  10 N10           -1.9266     3.0976     0.0454 N.pl3   
  11 C11           -3.3024     3.3226    -0.0400 C.ar    
  12 C12           -4.1947     2.3413     0.3729 C.ar    
  13 C13           -5.5569     2.5664     0.2874 C.ar    
  14 C14           -6.0312     3.7689    -0.2094 C.ar    
  15 C15           -5.1436     4.7484    -0.6220 C.ar    
  16 C16           -3.7805     4.5303    -0.5326 C.ar    
  17 F17           -5.6092     5.9204    -1.1067 F       
  18 F18           -6.4252     1.6122     0.6884 F       
  19 H19            1.2830    -1.7394    -0.0914 H       
  20 H20            3.3101    -0.4185     0.4451 H       
  21 H21            3.1306     2.0156     0.7575 H       
  22 H22           -1.5554    -1.3079    -0.5206 H       
  23 H23           -1.3202     3.8437     0.1736 H       
  24 H24           -3.8253     1.4032     0.7601 H       
  25 H25           -7.0951     3.9428    -0.2755 H       
  26 H26           -3.0886     5.2965    -0.8497 H       
@<TRIPOS>BOND
   1    1    2 ar
   2    1    6 ar
   3    1    9 1
   4    2    3 ar
   5    2    8 1
   6    3    4 ar
   7    3   19 1
   8    4    5 ar
   9    4   20 1
  10    5    6 ar
  11    5   21 1
  12    7    8 1
  13    7    9 2
  14    8   22 1
  15    9   10 1
  16   10   11 1
  17   10   23 1
  18   11   12 ar
  19   11   16 ar
  20   12   13 ar
  21   12   24 1
  22   13   14 ar
  23   13   18 1
  24   14   15 ar
  25   14   25 1
  26   15   16 ar
  27   15   17 1
  28   16   26 1

#	End of record

