#	Name: ASD05250050
#	Creating user name:	WinNT
#	Creation time:	15. 06. 2019 20:58

#	Modifying user name:	WinNT
#	Modification time:	15. 06. 2019 20:58

#	Program:	/corina/corina34_cracker 3.40 0067  02.08.2006

@<TRIPOS>MOLECULE
ASD05250050
  37   39    0    0    0
SMALL
NO_CHARGES


@<TRIPOS>ATOM
   1 C1            -0.0158     1.3174     0.0093 C.ar    
   2 N2             0.0021    -0.0041     0.0020 N.ar    
   3 C3             1.1497    -0.6734    -0.0125 C.ar    
   4 N4             2.3270    -0.0676    -0.0201 N.ar    
   5 C5             2.4021     1.2590    -0.0137 C.ar    
   6 C6             1.2024     1.9986     0.0013 C.ar    
   7 N7             3.6117     1.9039    -0.0218 N.pl3   
   8 C8             3.7211     3.2416    -0.0161 C.2     
   9 C9             2.6196     4.0707    -0.0015 C.2     
  10 C10            1.2747     3.4669     0.0085 C.2     
  11 C11            2.7834     5.5314     0.0043 C.2     
  12 O12            3.8972     6.0181    -0.0037 O.2     
  13 O13            1.6984     6.3312     0.0186 O.3     
  14 O14            0.2683     4.1540     0.0214 O.2     
  15 C15            4.8360     1.0995    -0.0369 C.3     
  16 C16            5.2489     0.8263    -1.4846 C.3     
  17 N17            1.1132    -2.0529    -0.0196 N.3     
  18 C18           -0.2768    -2.5447    -0.0089 C.3     
  19 C19           -0.4499    -3.4526    -1.2447 C.3     
  20 C20            1.0055    -3.8785    -1.5722 C.3     
  21 C21            1.7952    -2.5949    -1.2141 C.3     
  22 H22           -0.9511     1.8574     0.0167 H       
  23 H23            4.7063     3.6839    -0.0227 H       
  24 H24            1.8563     7.2852     0.0219 H       
  25 H25            5.6331     1.6414     0.4722 H       
  26 H26            4.6557     0.1538     0.4742 H       
  27 H27            6.1599     0.2278    -1.4958 H       
  28 H28            4.4519     0.2844    -1.9936 H       
  29 H29            5.4292     1.7720    -1.9956 H       
  30 H30           -0.4606    -3.1170     0.9003 H       
  31 H31           -0.9681    -1.7040    -0.0667 H       
  32 H32           -1.0605    -4.3222    -1.0015 H       
  33 H33           -0.8844    -2.8953    -2.0746 H       
  34 H34            1.3173    -4.7157    -0.9477 H       
  35 H35            1.1129    -4.1208    -2.6295 H       
  36 H36            1.7487    -1.8793    -2.0350 H       
  37 H37            2.8315    -2.8395    -0.9811 H       
@<TRIPOS>BOND
   1    1    2 ar
   2    1    6 ar
   3    1   22 1
   4    2    3 ar
   5    3    4 ar
   6    3   17 1
   7    4    5 ar
   8    5    6 ar
   9    5    7 1
  10    6   10 1
  11    7    8 1
  12    7   15 1
  13    8    9 2
  14    8   23 1
  15    9   10 1
  16    9   11 1
  17   10   14 2
  18   11   12 2
  19   11   13 1
  20   13   24 1
  21   15   16 1
  22   15   25 1
  23   15   26 1
  24   16   27 1
  25   16   28 1
  26   16   29 1
  27   17   18 1
  28   17   21 1
  29   18   19 1
  30   18   30 1
  31   18   31 1
  32   19   20 1
  33   19   32 1
  34   19   33 1
  35   20   21 1
  36   20   34 1
  37   20   35 1
  38   21   36 1
  39   21   37 1

#	End of record

