#	Name: ASD01884293
#	Creating user name:	WinNT
#	Creation time:	15. 06. 2019 19:47

#	Modifying user name:	WinNT
#	Modification time:	15. 06. 2019 19:47

#	Program:	/corina/corina34_cracker 3.40 0067  02.08.2006

@<TRIPOS>MOLECULE
ASD01884293
  39   41    0    0    0
SMALL
NO_CHARGES


@<TRIPOS>ATOM
   1 O1            -0.0279     1.3469    -0.1112 O.3     
   2 C2            -0.0027    -0.0063    -0.0595 C.2     
   3 C3             1.1983    -0.6887    -0.1175 C.2     
   4 C4            -1.1997    -0.7402     0.0602 C.2     
   5 C5            -1.1581    -2.0888     0.1109 C.2     
   6 N6             0.0259    -2.7529     0.0485 N.am    
   7 C7             1.1906    -2.0873    -0.0612 C.2     
   8 O8             2.2426    -2.7051    -0.1156 O.2     
   9 C9             0.0351    -4.2167     0.1068 C.3     
  10 C10           -0.0699    -4.7842    -1.3102 C.3     
  11 C11            0.0414    -6.3014    -1.4736 C.3     
  12 C12            2.4986     0.0632    -0.2402 C.3     
  13 C13           -0.4821     2.0325     1.0575 C.3     
  14 C14           -0.3252     3.5183     0.8612 C.ar    
  15 C15           -1.3121    -5.6101    -1.6502 C.3     
  16 C16           -1.3565     4.2554     0.3097 C.ar    
  17 C17           -1.2125     5.6184     0.1295 C.ar    
  18 C18           -0.0374     6.2444     0.5013 C.ar    
  19 C19            0.9935     5.5075     1.0536 C.ar    
  20 C20            0.8479     4.1452     1.2377 C.ar    
  21 F21            3.0280     0.2905     1.0346 F       
  22 F22            3.4043    -0.6912    -0.9936 F       
  23 F23            2.2704     1.2886    -0.8757 F       
  24 H24           -2.1477    -0.2253     0.1115 H       
  25 H25           -2.0779    -2.6472     0.2026 H       
  26 H26            0.9634    -4.5562     0.5663 H       
  27 H27           -0.8116    -4.5620     0.7001 H       
  28 H28            0.3517    -4.1608    -2.0987 H       
  29 H29            0.5358    -6.6761    -2.3698 H       
  30 H30            0.1894    -6.8952    -0.5716 H       
  31 H31           -1.5323     1.7978     1.2312 H       
  32 H32            0.1081     1.7152     1.9172 H       
  33 H33           -2.0546    -5.7492    -0.8643 H       
  34 H34           -1.7081    -5.5301    -2.6625 H       
  35 H35           -2.2745     3.7663     0.0193 H       
  36 H36           -2.0179     6.1941    -0.3019 H       
  37 H37            0.0753     7.3091     0.3599 H       
  38 H38            1.9117     5.9965     1.3437 H       
  39 H39            1.6534     3.5695     1.6692 H       
@<TRIPOS>BOND
   1    1    2 1
   2    1   13 1
   3    2    3 2
   4    2    4 1
   5    3   12 1
   6    3    7 1
   7    4    5 2
   8    4   24 1
   9    5    6 1
  10    5   25 1
  11    6    7 am
  12    6    9 1
  13    7    8 2
  14    9   10 1
  15    9   26 1
  16    9   27 1
  17   10   11 1
  18   10   15 1
  19   10   28 1
  20   11   15 1
  21   11   29 1
  22   11   30 1
  23   12   21 1
  24   12   22 1
  25   12   23 1
  26   13   14 1
  27   13   31 1
  28   13   32 1
  29   14   16 ar
  30   14   20 ar
  31   15   33 1
  32   15   34 1
  33   16   17 ar
  34   16   35 1
  35   17   18 ar
  36   17   36 1
  37   18   19 ar
  38   18   37 1
  39   19   20 ar
  40   19   38 1
  41   20   39 1

#	End of record

