#	Name: ASD07930837
#	Creating user name:	WinNT
#	Creation time:	15. 06. 2019 21:13

#	Modifying user name:	WinNT
#	Modification time:	15. 06. 2019 21:13

#	Program:	/corina/corina34_cracker 3.40 0067  02.08.2006

@<TRIPOS>MOLECULE
ASD07930837
  45   48    0    0    0
SMALL
NO_CHARGES


@<TRIPOS>ATOM
   1 C1            -0.0180     1.4736     0.0101 C.2     
   2 C2             0.0021    -0.0041     0.0020 C.ar    
   3 C3             1.2186    -0.6887    -0.0133 C.ar    
   4 C4             1.2302    -2.0681    -0.0208 C.ar    
   5 C5             0.0396    -2.7731    -0.0138 C.ar    
   6 C6            -1.1696    -2.1008     0.0014 C.ar    
   7 C7            -1.1954    -0.7216     0.0154 C.ar    
   8 O8             1.0261     2.0955     0.0035 O.2     
   9 N9            -1.1942     2.1316     0.0193 N.am    
  10 S10            0.3209     4.3779     0.0243 S.3     
  11 C11           -1.2129     3.5126     0.0269 C.2     
  12 N12           -2.3402     4.1088     0.0351 N.2     
  13 C13           -2.6609     5.5157     0.0624 C.3     
  14 C14           -1.4450     6.4464     0.1726 C.3     
  15 C15           -0.2558     5.9640    -0.6342 C.3     
  16 O16           -2.4489     6.3557     2.3078 O.3     
  17 C17           -3.4059     5.8107     1.3908 C.3     
  18 C18           -1.1525     6.4165     1.6865 C.3     
  19 C19           -0.4164     7.6883     2.1124 C.3     
  20 C20           -3.5216     5.8819    -1.1192 C.ar    
  21 C21           -3.9583     7.1863    -1.2797 C.ar    
  22 C22           -4.7483     7.5224    -2.3652 C.ar    
  23 C23           -5.1011     6.5540    -3.2894 C.ar    
  24 C24           -4.6634     5.2506    -3.1269 C.ar    
  25 C25           -3.8700     4.9172    -2.0452 C.ar    
  26 F26           -5.8727     6.8805    -4.3493 F       
  27 F27           -3.6136     8.1303    -0.3767 F       
  28 H28            2.1486    -0.1396    -0.0195 H       
  29 H29            2.1706    -2.5990    -0.0327 H       
  30 H30            0.0543    -3.8530    -0.0205 H       
  31 H31           -2.0953    -2.6571     0.0065 H       
  32 H32           -2.1399    -0.1980     0.0321 H       
  33 H33           -2.0276     1.6352     0.0206 H       
  34 H34           -1.7199     7.4540    -0.1390 H       
  35 H35            0.5481     6.6974    -0.5704 H       
  36 H36           -0.5510     5.8389    -1.6759 H       
  37 H37           -4.2035     6.5327     1.2155 H       
  38 H38           -3.8220     4.8878     1.7948 H       
  39 H39           -0.5668     5.5337     1.9428 H       
  40 H40           -1.0335     8.5581     1.8872 H       
  41 H41           -0.2174     7.6515     3.1835 H       
  42 H42            0.5263     7.7614     1.5701 H       
  43 H43           -5.0896     8.5393    -2.4909 H       
  44 H44           -4.9385     4.4949    -3.8478 H       
  45 H45           -3.5256     3.9010    -1.9215 H       
@<TRIPOS>BOND
   1    1    2 1
   2    1    8 2
   3    1    9 am
   4    2    3 ar
   5    2    7 ar
   6    3    4 ar
   7    3   28 1
   8    4    5 ar
   9    4   29 1
  10    5    6 ar
  11    5   30 1
  12    6    7 ar
  13    6   31 1
  14    7   32 1
  15    9   11 1
  16    9   33 1
  17   10   11 1
  18   10   15 1
  19   11   12 2
  20   12   13 1
  21   13   17 1
  22   13   20 1
  23   13   14 1
  24   14   15 1
  25   14   18 1
  26   14   34 1
  27   15   35 1
  28   15   36 1
  29   16   17 1
  30   16   18 1
  31   17   37 1
  32   17   38 1
  33   18   19 1
  34   18   39 1
  35   19   40 1
  36   19   41 1
  37   19   42 1
  38   20   21 ar
  39   20   25 ar
  40   21   22 ar
  41   21   27 1
  42   22   23 ar
  43   22   43 1
  44   23   24 ar
  45   23   26 1
  46   24   25 ar
  47   24   44 1
  48   25   45 1

#	End of record

