#	Name: ASD00170195
#	Creating user name:	WinNT
#	Creation time:	15. 06. 2019 18:31

#	Modifying user name:	WinNT
#	Modification time:	15. 06. 2019 18:31

#	Program:	/corina/corina34_cracker 3.40 0067  02.08.2006

@<TRIPOS>MOLECULE
ASD00170195
  36   38    0    0    0
SMALL
NO_CHARGES


@<TRIPOS>ATOM
   1 C1            -0.0143     1.3328    -0.1099 C.2     
   2 C2             0.0056    -0.0012    -0.1401 C.2     
   3 C3            -1.3204    -0.5793     0.0265 C.2     
   4 C4            -2.3072     0.3599     0.1716 C.2     
   5 S5            -1.6531     1.9297     0.1171 S.3     
   6 C6             1.2016     2.2261    -0.2448 C.3     
   7 C7             2.0525     1.7760    -1.4311 C.3     
   8 C8             3.0750     0.7478    -0.9549 C.3     
   9 C9             2.4800    -0.0896     0.1749 C.3     
  10 C10            1.2554    -0.8423    -0.3362 C.3     
  11 N11           -3.6461     0.0725     0.3427 N.pl3   
  12 C12           -1.5738    -2.0198     0.0378 C.2     
  13 C13           -1.8287    -2.7358    -1.2310 C.ar    
  14 O14           -1.5747    -2.6296     1.0918 O.2     
  15 C15           -1.9610    -4.1254    -1.2371 C.ar    
  16 C16           -2.1992    -4.7874    -2.4233 C.ar    
  17 C17           -2.3067    -4.0764    -3.6067 C.ar    
  18 C18           -2.1759    -2.6978    -3.6071 C.ar    
  19 C19           -1.9438    -2.0240    -2.4264 C.ar    
  20 Br20          -2.6327    -4.9918    -5.2289 Br      
  21 H21            0.8787     3.2553    -0.4012 H       
  22 H22            1.7949     2.1697     0.6679 H       
  23 H23            1.4112     1.3273    -2.1897 H       
  24 H24            2.5712     2.6362    -1.8543 H       
  25 H25            3.3465     0.0956    -1.7850 H       
  26 H26            3.9654     1.2627    -0.5941 H       
  27 H27            3.2239    -0.8038     0.5279 H       
  28 H28            2.1872     0.5646     0.9962 H       
  29 H29            1.1511    -1.7781     0.2129 H       
  30 H30            1.3817    -1.0600    -1.3968 H       
  31 H31           -3.9557    -0.8453     0.2904 H       
  32 H32           -4.2776     0.7882     0.5154 H       
  33 H33           -1.8767    -4.6811    -0.3148 H       
  34 H34           -2.3017    -5.8625    -2.4293 H       
  35 H35           -2.2604    -2.1487    -4.5333 H       
  36 H36           -1.8423    -0.9488    -2.4278 H       
@<TRIPOS>BOND
   1    1    2 2
   2    1    6 1
   3    1    5 1
   4    2    3 1
   5    2   10 1
   6    3    4 2
   7    3   12 1
   8    4    5 1
   9    4   11 1
  10    6    7 1
  11    6   21 1
  12    6   22 1
  13    7    8 1
  14    7   23 1
  15    7   24 1
  16    8    9 1
  17    8   25 1
  18    8   26 1
  19    9   10 1
  20    9   27 1
  21    9   28 1
  22   10   29 1
  23   10   30 1
  24   11   31 1
  25   11   32 1
  26   12   13 1
  27   12   14 2
  28   13   15 ar
  29   13   19 ar
  30   15   16 ar
  31   15   33 1
  32   16   17 ar
  33   16   34 1
  34   17   18 ar
  35   17   20 1
  36   18   19 ar
  37   18   35 1
  38   19   36 1

#	End of record

