#	Name: ASD01813009
#	Creating user name:	WinNT
#	Creation time:	15. 06. 2019 19:29

#	Modifying user name:	WinNT
#	Modification time:	15. 06. 2019 19:29

#	Program:	/corina/corina34_cracker 3.40 0067  02.08.2006

@<TRIPOS>MOLECULE
ASD01813009
  54   58    0    0    0
SMALL
NO_CHARGES


@<TRIPOS>ATOM
   1 N1             0.0027     1.3184    -0.2223 N.ar    
   2 C2             0.0319     0.0058    -0.3459 C.ar    
   3 C3             1.2340    -0.6843    -0.3681 C.ar    
   4 C4             2.4113     0.0205    -0.2592 C.ar    
   5 C5             2.3614     1.4132    -0.1292 C.ar    
   6 C6             1.1073     2.0395    -0.1145 C.ar    
   7 C7             3.8682    -0.3580    -0.2433 C.3     
   8 N8             4.6152     0.8976    -0.0980 N.am    
   9 C9             3.7395     1.9163    -0.0327 C.2     
  10 C10            6.0736     1.0205    -0.0346 C.3     
  11 C11            6.6239     1.1964    -1.4264 C.ar    
  12 O12            1.0259     3.3855     0.0100 O.3     
  13 O13            4.0443     3.0872     0.0883 O.2     
  14 C14            6.7710     2.4657    -1.9549 C.ar    
  15 C15            7.2750     2.6301    -3.2303 C.ar    
  16 C16            7.6342     1.5193    -3.9818 C.ar    
  17 C17            7.4854     0.2462    -3.4484 C.ar    
  18 C18            6.9861     0.0885    -2.1703 C.ar    
  19 C19           -0.2021     3.9617    -0.0802 C.ar    
  20 C20           -1.0089     4.0615     1.0469 C.ar    
  21 C21           -0.6498     4.4560    -1.2957 C.ar    
  22 C22           -1.8984     5.0419    -1.3851 C.ar    
  23 C23           -2.7017     5.1361    -0.2642 C.ar    
  24 C24           -2.2573     4.6487     0.9514 C.ar    
  25 F25           -0.5744     3.5852     2.2341 F       
  26 N26            8.1457     1.6829    -5.2767 N.pl3   
  27 C27           -4.0623     5.7760    -0.3657 C.3     
  28 C28           -5.0642     4.7491    -0.6953 C.1     
  29 N29           -5.8373     3.9566    -0.9497 N.1     
  30 N30            8.3528     2.9030    -5.9333 N.2     
  31 C31            8.5320     0.6913    -6.1110 C.2     
  32 C32            8.9632     1.2636    -7.2589 C.2     
  33 C33            8.8405     2.6506    -7.1213 C.2     
  34 C34            9.2099     3.6774    -8.1607 C.3     
  35 F35            9.0601     4.9602    -7.6229 F       
  36 F36           10.5399     3.4879    -8.5513 F       
  37 F37            8.3728     3.5372    -9.2728 F       
  38 H38           -0.8959    -0.5406    -0.4309 H       
  39 H39            1.2466    -1.7595    -0.4691 H       
  40 H40            4.0751    -1.0170     0.5999 H       
  41 H41            4.1382    -0.8488    -1.1784 H       
  42 H42            6.3393     1.8855     0.5732 H       
  43 H43            6.4951     0.1197     0.4116 H       
  44 H44            6.4910     3.3294    -1.3700 H       
  45 H45            7.3893     3.6217    -3.6427 H       
  46 H46            7.7636    -0.6198    -4.0307 H       
  47 H47            6.8745    -0.9014    -1.7531 H       
  48 H48           -0.0230     4.3837    -2.1722 H       
  49 H49           -2.2469     5.4268    -2.3321 H       
  50 H50           -2.8853     4.7269     1.8265 H       
  51 H51           -4.3176     6.2401     0.5870 H       
  52 H52           -4.0494     6.5352    -1.1477 H       
  53 H53            8.5020    -0.3673    -5.8991 H       
  54 H54            9.3387     0.7420    -8.1268 H       
@<TRIPOS>BOND
   1    1    2 ar
   2    1    6 ar
   3    2    3 ar
   4    2   38 1
   5    3    4 ar
   6    3   39 1
   7    4    7 1
   8    4    5 ar
   9    5    6 ar
  10    5    9 1
  11    6   12 1
  12    7    8 1
  13    7   40 1
  14    7   41 1
  15    8    9 am
  16    8   10 1
  17    9   13 2
  18   10   11 1
  19   10   42 1
  20   10   43 1
  21   11   14 ar
  22   11   18 ar
  23   12   19 1
  24   14   15 ar
  25   14   44 1
  26   15   16 ar
  27   15   45 1
  28   16   17 ar
  29   16   26 1
  30   17   18 ar
  31   17   46 1
  32   18   47 1
  33   19   21 ar
  34   19   20 ar
  35   20   24 ar
  36   20   25 1
  37   21   22 ar
  38   21   48 1
  39   22   23 ar
  40   22   49 1
  41   23   24 ar
  42   23   27 1
  43   24   50 1
  44   26   31 1
  45   26   30 1
  46   27   28 1
  47   27   51 1
  48   27   52 1
  49   28   29 3
  50   30   33 2
  51   31   32 2
  52   31   53 1
  53   32   33 1
  54   32   54 1
  55   33   34 1
  56   34   35 1
  57   34   36 1
  58   34   37 1

#	End of record

