#	Name: ASD00170428
#	Creating user name:	WinNT
#	Creation time:	15. 06. 2019 18:32

#	Modifying user name:	WinNT
#	Modification time:	15. 06. 2019 18:32

#	Program:	/corina/corina34_cracker 3.40 0067  02.08.2006

@<TRIPOS>MOLECULE
ASD00170428
  47   49    0    0    0
SMALL
NO_CHARGES


@<TRIPOS>ATOM
   1 C1            -0.0235     1.3641     0.0420 C.2     
   2 C2            -0.0022    -0.0105    -0.0062 C.2     
   3 C3            -1.3293    -0.5890    -0.0274 C.2     
   4 C4            -2.2938     0.3173     0.0036 C.2     
   5 S5            -1.6278     1.9391     0.0683 S.3     
   6 C6            -1.5867    -2.0729    -0.0801 C.3     
   7 N7             1.0990     2.1665     0.0709 N.pl3   
   8 C8             1.2277    -0.8019    -0.0330 C.2     
   9 C9             1.7693    -1.2830    -1.3221 C.ar    
  10 O10            1.8055    -1.0644     1.0063 O.2     
  11 C11            2.9935    -1.9530    -1.3616 C.ar    
  12 C12            3.4933    -2.3998    -2.5666 C.ar    
  13 C13            2.7833    -2.1851    -3.7364 C.ar    
  14 C14            1.5684    -1.5206    -3.7036 C.ar    
  15 C15            1.0557    -1.0742    -2.5038 C.ar    
  16 Cl16           3.4189    -2.7505    -5.2497 Cl      
  17 N17           -1.6711    -2.6041     1.2869 N.3     
  18 C18           -2.1532    -3.9917     1.2837 C.3     
  19 C19           -0.3769    -2.4980     1.9738 C.3     
  20 C20           -2.4605    -4.4200     2.6955 C.ar    
  21 C21           -3.7259    -4.2254     3.2169 C.ar    
  22 C22           -4.0077    -4.6183     4.5120 C.ar    
  23 C23           -3.0243    -5.2061     5.2855 C.ar    
  24 C24           -1.7592    -5.4014     4.7637 C.ar    
  25 C25           -1.4785    -5.0125     3.4672 C.ar    
  26 C26           -3.7666    -0.0016    -0.0094 C.3     
  27 H27           -2.5253    -2.2606    -0.6014 H       
  28 H28           -0.7715    -2.5644    -0.6111 H       
  29 H29            1.9799     1.7660     0.1372 H       
  30 H30            1.0070     3.1311     0.0249 H       
  31 H31            3.5481    -2.1207    -0.4502 H       
  32 H32            4.4404    -2.9179    -2.5984 H       
  33 H33            1.0196    -1.3554    -4.6189 H       
  34 H34            0.1084    -0.5562    -2.4794 H       
  35 H35           -3.0569    -4.0609     0.6782 H       
  36 H36           -1.3850    -4.6423     0.8657 H       
  37 H37           -0.0766    -1.4513     2.0235 H       
  38 H38           -0.4677    -2.8982     2.9836 H       
  39 H39            0.3738    -3.0657     1.4241 H       
  40 H40           -4.4942    -3.7662     2.6126 H       
  41 H41           -4.9961    -4.4657     4.9196 H       
  42 H42           -3.2443    -5.5123     6.2975 H       
  43 H43           -0.9907    -5.8604     5.3682 H       
  44 H44           -0.4901    -5.1652     3.0596 H       
  45 H45           -4.1229    -0.1150     1.0145 H       
  46 H46           -4.3096     0.8090    -0.4954 H       
  47 H47           -3.9326    -0.9295    -0.5566 H       
@<TRIPOS>BOND
   1    1    2 2
   2    1    7 1
   3    1    5 1
   4    2    3 1
   5    2    8 1
   6    3    4 2
   7    3    6 1
   8    4    5 1
   9    4   26 1
  10    6   17 1
  11    6   27 1
  12    6   28 1
  13    7   29 1
  14    7   30 1
  15    8    9 1
  16    8   10 2
  17    9   11 ar
  18    9   15 ar
  19   11   12 ar
  20   11   31 1
  21   12   13 ar
  22   12   32 1
  23   13   14 ar
  24   13   16 1
  25   14   15 ar
  26   14   33 1
  27   15   34 1
  28   17   18 1
  29   17   19 1
  30   18   20 1
  31   18   35 1
  32   18   36 1
  33   19   37 1
  34   19   38 1
  35   19   39 1
  36   20   21 ar
  37   20   25 ar
  38   21   22 ar
  39   21   40 1
  40   22   23 ar
  41   22   41 1
  42   23   24 ar
  43   23   42 1
  44   24   25 ar
  45   24   43 1
  46   25   44 1
  47   26   45 1
  48   26   46 1
  49   26   47 1

#	End of record

