#	Name: ASD00844746
#	Creating user name:	WinNT
#	Creation time:	15. 06. 2019 18:50

#	Modifying user name:	WinNT
#	Modification time:	15. 06. 2019 18:50

#	Program:	/corina/corina34_cracker 3.40 0067  02.08.2006

@<TRIPOS>MOLECULE
ASD00844746
  90   95    0    0    0
SMALL
NO_CHARGES


@<TRIPOS>ATOM
   1 C1             0.5913     1.2994    -0.7086 C.ar    
   2 C2             0.8926    -0.0407    -0.9020 C.ar    
   3 C3             0.8171    -0.9271     0.1628 C.ar    
   4 C4             0.4424    -0.4733     1.4124 C.ar    
   5 C5             0.1420     0.8632     1.6025 C.ar    
   6 C6             0.2169     1.7484     0.5433 C.ar    
   7 C7             1.1433    -2.3838    -0.0439 C.3     
   8 C8             0.8637    -3.1742     1.2166 C.2     
   9 C9             0.3444    -2.9492    -1.2199 C.3     
  10 C10           -1.1240    -2.6911    -1.0000 C.2     
  11 N11           -2.0284    -3.1430    -1.8911 N.am    
  12 O12           -1.4917    -2.0769    -0.0210 O.2     
  13 C13           -3.4500    -2.7972    -1.7558 C.3     
  14 C14           -4.2745    -4.0883    -1.7647 C.3     
  15 C15           -3.9405    -4.8934    -3.0226 C.3     
  16 C16           -2.4567    -5.2679    -3.0116 C.3     
  17 C17           -1.6108    -3.9856    -3.0200 C.3     
  18 C18           -4.7875    -6.1672    -3.0524 C.3     
  19 C19           -6.2725    -5.7941    -3.0652 C.3     
  20 C20           -7.1132    -7.0696    -3.1564 C.3     
  21 N21           -6.7634    -7.8014    -4.3805 N.3     
  22 C22           -5.3534    -8.2114    -4.3695 C.3     
  23 C23           -4.4602    -6.9700    -4.3145 C.3     
  24 H24           -7.3702    -8.5967    -4.5123 H       
  25 O25           -0.2114    -3.3011     1.7633 O.2     
  26 N26            2.0294    -3.7095     1.6155 N.am    
  27 C27            2.6268    -2.5678    -0.2700 C.ar    
  28 C28            3.0828    -3.3754     0.7691 C.ar    
  29 C29            3.4848    -2.1075    -1.2364 C.ar    
  30 C30            4.8405    -2.4505    -1.1842 C.ar    
  31 C31            5.3061    -3.2620    -0.1426 C.ar    
  32 C32            4.4337    -3.7192     0.8217 C.ar    
  33 F33            6.6131    -3.5988    -0.0833 F       
  34 C34            1.9358    -6.3276     2.4590 C.ar    
  35 C35            0.6936    -6.7256     1.9873 C.ar    
  36 C36            2.9717    -7.2393     2.5285 C.ar    
  37 C37            2.7710    -8.5471     2.1280 C.ar    
  38 C38            1.5335    -8.9464     1.6574 C.ar    
  39 C39            0.4946    -8.0390     1.5864 C.ar    
  40 H40            1.3792    -9.9687     1.3451 H       
  41 O41           -0.3270    -5.8309     1.9184 O.3     
  42 C42           -1.5783    -6.3110     1.4226 C.3     
  43 C43           -2.5971    -5.1695     1.4186 C.3     
  44 S44            2.1946    -4.6589     2.9623 S.o2    
  45 O45            3.5570    -4.5649     3.3548 O.2     
  46 O46            1.1133    -4.3269     3.8224 O.2     
  47 O47            1.2607    -0.4849    -2.1325 O.3     
  48 C48            1.2284     0.4635    -3.2010 C.3     
  49 C49            1.7424    -0.1949    -4.4829 C.3     
  50 F50            3.0234    -0.7115    -4.2606 F       
  51 F51            0.8793    -1.2317    -4.8532 F       
  52 C52            5.7443    -1.9756    -2.1884 C.1     
  53 N53            6.4613    -1.5989    -2.9849 N.1     
  54 H54            0.6537     1.9921    -1.5349 H       
  55 H55            0.3834    -1.1628     2.2415 H       
  56 H56           -0.1515     1.2159     2.5801 H       
  57 H57           -0.0181     2.7916     0.6943 H       
  58 H58            0.6642    -2.4650    -2.1426 H       
  59 H59            0.5175    -4.0228    -1.2940 H       
  60 H60           -3.6095    -2.2683    -0.8161 H       
  61 H61           -3.7532    -2.1643    -2.5898 H       
  62 H62           -4.0351    -4.6790    -0.8805 H       
  63 H63           -5.3363    -3.8419    -1.7617 H       
  64 H64           -4.1569    -4.2929    -3.9062 H       
  65 H65           -2.2344    -5.8475    -2.1156 H       
  66 H66           -2.2246    -5.8612    -3.8961 H       
  67 H67           -1.7651    -3.4521    -3.9579 H       
  68 H68           -0.5569    -4.2423    -2.9124 H       
  69 H69           -4.5708    -6.7694    -2.1701 H       
  70 H70           -6.5212    -5.2591    -2.1486 H       
  71 H71           -6.4807    -5.1587    -3.9260 H       
  72 H72           -6.9148    -7.6982    -2.2883 H       
  73 H73           -8.1707    -6.8066    -3.1801 H       
  74 H74           -5.1633    -8.8347    -3.4957 H       
  75 H75           -5.1328    -8.7778    -5.2743 H       
  76 H76           -4.6398    -6.3531    -5.1950 H       
  77 H77           -3.4140    -7.2752    -4.2906 H       
  78 H78            3.1148    -1.4823    -2.0356 H       
  79 H79            4.7982    -4.3451     1.6229 H       
  80 H80            3.9390    -6.9298     2.8957 H       
  81 H81            3.5821    -9.2581     2.1824 H       
  82 H82           -0.4718    -8.3515     1.2194 H       
  83 H83           -1.4474    -6.6848     0.4071 H       
  84 H84           -1.9378    -7.1166     2.0628 H       
  85 H85           -2.7279    -4.7957     2.4341 H       
  86 H86           -2.2376    -4.3639     0.7784 H       
  87 H87           -3.5515    -5.5357     1.0404 H       
  88 H88            0.2044     0.8046    -3.3532 H       
  89 H89            1.8616     1.3146    -2.9506 H       
  90 H90            1.7831     0.5465    -5.2810 H       
@<TRIPOS>BOND
   1    1    2 ar
   2    1    6 ar
   3    1   54 1
   4    2    3 ar
   5    2   47 1
   6    3    4 ar
   7    3    7 1
   8    4    5 ar
   9    4   55 1
  10    5    6 ar
  11    5   56 1
  12    6   57 1
  13    7    8 1
  14    7    9 1
  15    7   27 1
  16    8   25 2
  17    8   26 am
  18    9   10 1
  19    9   58 1
  20    9   59 1
  21   10   11 am
  22   10   12 2
  23   11   13 1
  24   11   17 1
  25   13   14 1
  26   13   60 1
  27   13   61 1
  28   14   15 1
  29   14   62 1
  30   14   63 1
  31   15   16 1
  32   15   18 1
  33   15   64 1
  34   16   17 1
  35   16   65 1
  36   16   66 1
  37   17   67 1
  38   17   68 1
  39   18   19 1
  40   18   23 1
  41   18   69 1
  42   19   20 1
  43   19   70 1
  44   19   71 1
  45   20   21 1
  46   20   72 1
  47   20   73 1
  48   21   22 1
  49   21   24 1
  50   22   23 1
  51   22   74 1
  52   22   75 1
  53   23   76 1
  54   23   77 1
  55   26   44 am
  56   26   28 1
  57   27   28 ar
  58   27   29 ar
  59   28   32 ar
  60   29   30 ar
  61   29   78 1
  62   30   31 ar
  63   30   52 1
  64   31   32 ar
  65   31   33 1
  66   32   79 1
  67   34   35 ar
  68   34   36 ar
  69   34   44 1
  70   35   41 1
  71   35   39 ar
  72   36   37 ar
  73   36   80 1
  74   37   38 ar
  75   37   81 1
  76   38   39 ar
  77   38   40 1
  78   39   82 1
  79   41   42 1
  80   42   43 1
  81   42   83 1
  82   42   84 1
  83   43   85 1
  84   43   86 1
  85   43   87 1
  86   44   45 2
  87   44   46 2
  88   47   48 1
  89   48   49 1
  90   48   88 1
  91   48   89 1
  92   49   50 1
  93   49   51 1
  94   49   90 1
  95   52   53 3

#	End of record

