#	Name: ASD04880097
#	Creating user name:	WinNT
#	Creation time:	15. 06. 2019 20:52

#	Modifying user name:	WinNT
#	Modification time:	15. 06. 2019 20:52

#	Program:	/corina/corina34_cracker 3.40 0067  02.08.2006

@<TRIPOS>MOLECULE
ASD04880097
  52   55    0    0    0
SMALL
NO_CHARGES


@<TRIPOS>ATOM
   1 C1            -0.0314     1.1507     0.1891 C.2     
   2 O2             0.0267    -0.0639     0.1881 O.2     
   3 C3             1.2092     1.9499     0.1077 C.ar    
   4 C4             2.4530     1.3217     0.1816 C.ar    
   5 C5             3.6110     2.0770     0.1042 C.ar    
   6 C6             3.5328     3.4555    -0.0461 C.ar    
   7 C7             2.3013     4.0792    -0.1195 C.ar    
   8 C8             1.1409     3.3354    -0.0492 C.ar    
   9 O9             4.8244     1.4693     0.1757 O.3     
  10 C10            5.1851     0.6433    -0.8411 C.ar    
  11 C11            4.3788     0.5311    -1.9648 C.ar    
  12 C12            4.7480    -0.3090    -2.9973 C.ar    
  13 C13            5.9199    -1.0378    -2.9117 C.ar    
  14 C14            6.7252    -0.9280    -1.7931 C.ar    
  15 C15            6.3632    -0.0853    -0.7601 C.ar    
  16 N16           -1.2274     1.7681     0.2588 N.am    
  17 N17           -1.4243     3.1422     0.3789 N.2     
  18 C18           -2.6630     3.4943     0.4266 C.2     
  19 C19           -3.5409     2.2667     0.3342 C.3     
  20 C20           -2.5386     1.1016     0.2140 C.3     
  21 C21           -3.1492     4.8802     0.5526 C.ar    
  22 C22           -2.2387     5.9378     0.6303 C.ar    
  23 C23           -2.7000     7.2350     0.7484 C.ar    
  24 C24           -4.0700     7.4865     0.7898 C.ar    
  25 C25           -4.9739     6.4373     0.7132 C.ar    
  26 C26           -4.5212     5.1403     0.5890 C.ar    
  27 O27           -4.5217     8.7634     0.9061 O.3     
  28 C28           -5.9380     8.9497     0.9425 C.3     
  29 O29           -1.8168     8.2663     0.8247 O.3     
  30 C30           -0.4274     7.9356     0.7766 C.3     
  31 H31            2.5124     0.2497     0.2992 H       
  32 H32            4.4375     4.0424    -0.1055 H       
  33 H33            2.2470     5.1515    -0.2364 H       
  34 H34            0.1805     3.8254    -0.1113 H       
  35 H35            3.4632     1.0999    -2.0320 H       
  36 H36            4.1206    -0.3969    -3.8720 H       
  37 H37            6.2066    -1.6944    -3.7199 H       
  38 H38            7.6400    -1.4983    -1.7287 H       
  39 H39            6.9948     0.0036     0.1115 H       
  40 H40           -4.1481     2.1623     1.2333 H       
  41 H41           -4.1735     2.3148    -0.5521 H       
  42 H42           -2.6698     0.5763    -0.7320 H       
  43 H43           -2.6488     0.4152     1.0536 H       
  44 H44           -1.1771     5.7415     0.5985 H       
  45 H45           -6.0348     6.6368     0.7464 H       
  46 H46           -5.2273     4.3257     0.5247 H       
  47 H47           -6.3789     8.5657     0.0226 H       
  48 H48           -6.3532     8.4134     1.7958 H       
  49 H49           -6.1624    10.0122     1.0371 H       
  50 H50            0.1658     8.8474     0.8467 H       
  51 H51           -0.1816     7.2773     1.6099 H       
  52 H52           -0.2066     7.4298    -0.1633 H       
@<TRIPOS>BOND
   1    1    2 2
   2    1    3 1
   3    1   16 am
   4    3    4 ar
   5    3    8 ar
   6    4    5 ar
   7    4   31 1
   8    5    6 ar
   9    5    9 1
  10    6    7 ar
  11    6   32 1
  12    7    8 ar
  13    7   33 1
  14    8   34 1
  15    9   10 1
  16   10   11 ar
  17   10   15 ar
  18   11   12 ar
  19   11   35 1
  20   12   13 ar
  21   12   36 1
  22   13   14 ar
  23   13   37 1
  24   14   15 ar
  25   14   38 1
  26   15   39 1
  27   16   17 1
  28   16   20 1
  29   17   18 2
  30   18   19 1
  31   18   21 1
  32   19   20 1
  33   19   40 1
  34   19   41 1
  35   20   42 1
  36   20   43 1
  37   21   22 ar
  38   21   26 ar
  39   22   23 ar
  40   22   44 1
  41   23   24 ar
  42   23   29 1
  43   24   25 ar
  44   24   27 1
  45   25   26 ar
  46   25   45 1
  47   26   46 1
  48   27   28 1
  49   28   47 1
  50   28   48 1
  51   28   49 1
  52   29   30 1
  53   30   50 1
  54   30   51 1
  55   30   52 1

#	End of record

