#	Name: ASD01841009
#	Creating user name:	WinNT
#	Creation time:	15. 06. 2019 19:38

#	Modifying user name:	WinNT
#	Modification time:	15. 06. 2019 19:38

#	Program:	/corina/corina34_cracker 3.40 0067  02.08.2006

@<TRIPOS>MOLECULE
ASD01841009
  86   90    0    0    0
SMALL
NO_CHARGES


@<TRIPOS>ATOM
   1 C1            -0.0178     1.4646     0.0101 C.3     
   2 N2             0.0021    -0.0041     0.0020 N.4     
   3 C3             0.6969    -0.4926     1.2004 C.3     
   4 C4             2.1384     0.0209     1.1994 C.3     
   5 N5             2.1318     1.4905     1.1809 N.3     
   6 C6             1.4177     1.9945    -0.0008 C.3     
   7 C7            -1.3762    -0.5121    -0.0058 C.3     
   8 C8            -1.3558    -2.0420    -0.0142 C.3     
   9 C9            -2.7914    -2.5712    -0.0224 C.3     
  10 C10           -2.7709    -4.1010    -0.0308 C.3     
  11 C11           -2.0584    -4.6006     1.1995 C.ar    
  12 C12           -4.1849    -4.6222    -0.0388 C.ar    
  13 O13           -2.0868    -4.5618    -1.1976 O.3     
  14 C14           -1.3708    -5.7992     1.1611 C.ar    
  15 C15           -0.7172    -6.2576     2.2897 C.ar    
  16 C16           -0.7508    -5.5171     3.4565 C.ar    
  17 C17           -1.4376    -4.3180     3.4946 C.ar    
  18 C18           -2.0876    -3.8576     2.3648 C.ar    
  19 C19           -4.4726    -5.8307    -0.6451 C.ar    
  20 C20           -5.7697    -6.3088    -0.6525 C.ar    
  21 C21           -6.7789    -5.5786    -0.0532 C.ar    
  22 C22           -6.4910    -4.3706     0.5539 C.ar    
  23 C23           -5.1932    -3.8945     0.5651 C.ar    
  24 C24            3.4995     2.0239     1.2366 C.3     
  25 C25            3.4712     3.5294     0.9658 C.3     
  26 C26            4.8956     4.0849     1.0239 C.3     
  27 C27            4.8673     5.5905     0.7531 C.3     
  28 O28            4.1610     6.2505     1.8055 O.3     
  29 C29            6.2783     6.1158     0.6885 C.ar    
  30 C30            4.1734     5.8520    -0.5587 C.ar    
  31 C31            3.4792     7.0320    -0.7503 C.ar    
  32 C32            2.8426     7.2719    -1.9536 C.ar    
  33 C33            2.9006     6.3320    -2.9656 C.ar    
  34 C34            3.5955     5.1524    -2.7744 C.ar    
  35 C35            4.2357     4.9144    -1.5726 C.ar    
  36 C36            6.5496     7.4168     1.0691 C.ar    
  37 C37            7.8438     7.8987     1.0098 C.ar    
  38 C38            8.8669     7.0795     0.5704 C.ar    
  39 C39            8.5958     5.7783     0.1907 C.ar    
  40 C40            7.3023     5.2950     0.2541 C.ar    
  41 C41            0.7046    -0.4774    -1.1981 C.3     
  42 H42           -0.5451     1.8257    -0.8730 H       
  43 H43           -0.5281     1.8161     0.9069 H       
  44 H44            0.1830    -0.1311     2.0910 H       
  45 H45            0.6996    -1.5826     1.1997 H       
  46 H46            2.6498    -0.3292     2.0960 H       
  47 H47            2.6566    -0.3516     0.3158 H       
  48 H48            1.9241     1.6544    -0.9041 H       
  49 H49            1.4034     3.0842     0.0203 H       
  50 H50           -1.8981    -0.1606     0.8843 H       
  51 H51           -1.8916    -0.1508    -0.8957 H       
  52 H52           -0.8340    -2.3935    -0.9043 H       
  53 H53           -0.8404    -2.4034     0.8756 H       
  54 H54           -3.3132    -2.2197     0.8677 H       
  55 H55           -3.3068    -2.2098    -0.9122 H       
  56 H56           -2.4911    -4.2773    -2.0287 H       
  57 H57           -1.3445    -6.3778     0.2495 H       
  58 H58           -0.1805    -7.1944     2.2599 H       
  59 H59           -0.2407    -5.8755     4.3384 H       
  60 H60           -1.4642    -3.7397     4.4063 H       
  61 H61           -2.6242    -2.9208     2.3946 H       
  62 H62           -3.6842    -6.4012    -1.1134 H       
  63 H63           -5.9946    -7.2526    -1.1269 H       
  64 H64           -7.7923    -5.9518    -0.0596 H       
  65 H65           -7.2795    -3.7999     1.0219 H       
  66 H66           -4.9683    -2.9507     1.0395 H       
  67 H67            3.9211     1.8403     2.2248 H       
  68 H68            4.1128     1.5306     0.4825 H       
  69 H69            3.0496     3.7130    -0.0224 H       
  70 H70            2.8578     4.0227     1.7199 H       
  71 H71            5.3172     3.9013     2.0121 H       
  72 H72            5.5090     3.5916     0.2698 H       
  73 H73            4.5525     6.1253     2.6809 H       
  74 H74            3.4339     7.7663     0.0404 H       
  75 H75            2.2997     8.1935    -2.1030 H       
  76 H76            2.4026     6.5191    -3.9055 H       
  77 H77            3.6405     4.4180    -3.5650 H       
  78 H78            4.7787     3.9929    -1.4232 H       
  79 H79            5.7502     8.0568     1.4124 H       
  80 H80            8.0556     8.9154     1.3064 H       
  81 H81            9.8780     7.4563     0.5234 H       
  82 H82            9.3951     5.1384    -0.1529 H       
  83 H83            7.0905     4.2784    -0.0425 H       
  84 H84            1.7272    -0.1000    -1.1931 H       
  85 H85            0.7195    -1.5672    -1.2043 H       
  86 H86            0.1884    -0.1160    -2.0875 H       
@<TRIPOS>BOND
   1    1    2 1
   2    1    6 1
   3    1   42 1
   4    1   43 1
   5    2    3 1
   6    2    7 1
   7    2   41 1
   8    3    4 1
   9    3   44 1
  10    3   45 1
  11    4    5 1
  12    4   46 1
  13    4   47 1
  14    5    6 1
  15    5   24 1
  16    6   48 1
  17    6   49 1
  18    7    8 1
  19    7   50 1
  20    7   51 1
  21    8    9 1
  22    8   52 1
  23    8   53 1
  24    9   10 1
  25    9   54 1
  26    9   55 1
  27   10   11 1
  28   10   12 1
  29   10   13 1
  30   11   14 ar
  31   11   18 ar
  32   12   19 ar
  33   12   23 ar
  34   13   56 1
  35   14   15 ar
  36   14   57 1
  37   15   16 ar
  38   15   58 1
  39   16   17 ar
  40   16   59 1
  41   17   18 ar
  42   17   60 1
  43   18   61 1
  44   19   20 ar
  45   19   62 1
  46   20   21 ar
  47   20   63 1
  48   21   22 ar
  49   21   64 1
  50   22   23 ar
  51   22   65 1
  52   23   66 1
  53   24   25 1
  54   24   67 1
  55   24   68 1
  56   25   26 1
  57   25   69 1
  58   25   70 1
  59   26   27 1
  60   26   71 1
  61   26   72 1
  62   27   28 1
  63   27   29 1
  64   27   30 1
  65   28   73 1
  66   29   36 ar
  67   29   40 ar
  68   30   31 ar
  69   30   35 ar
  70   31   32 ar
  71   31   74 1
  72   32   33 ar
  73   32   75 1
  74   33   34 ar
  75   33   76 1
  76   34   35 ar
  77   34   77 1
  78   35   78 1
  79   36   37 ar
  80   36   79 1
  81   37   38 ar
  82   37   80 1
  83   38   39 ar
  84   38   81 1
  85   39   40 ar
  86   39   82 1
  87   40   83 1
  88   41   84 1
  89   41   85 1
  90   41   86 1

#	End of record

