#	Name: ASD01813386
#	Creating user name:	WinNT
#	Creation time:	15. 06. 2019 19:30

#	Modifying user name:	WinNT
#	Modification time:	15. 06. 2019 19:30

#	Program:	/corina/corina34_cracker 3.40 0067  02.08.2006

@<TRIPOS>MOLECULE
ASD01813386
  56   59    0    0    0
SMALL
NO_CHARGES


@<TRIPOS>ATOM
   1 C1             0.1535     1.0164    -0.2327 C.3     
   2 C2             0.1158    -0.4653     0.0397 C.ar    
   3 C3             0.0431    -1.3678    -1.0091 C.ar    
   4 N4             0.0097    -2.6633    -0.7844 N.ar    
   5 C5             0.0443    -3.1575     0.4468 C.ar    
   6 C6             0.1178    -2.3085     1.5489 C.ar    
   7 C7             0.1593    -0.9388     1.3419 C.ar    
   8 C8             0.2448     0.0143     2.5060 C.3     
   9 C9             1.6862     0.3790     2.7519 C.ar    
  10 C10            2.4889    -0.4558     3.5082 C.ar    
  11 C11            3.8098    -0.1267     3.7360 C.ar    
  12 C12            4.3342     1.0485     3.2029 C.ar    
  13 C13            3.5214     1.8857     2.4420 C.ar    
  14 C14            2.2032     1.5445     2.2158 C.ar    
  15 C15            5.7543     1.4079     3.4451 C.2     
  16 C16            6.6879     0.6575     4.1861 C.2     
  17 N17            7.8267     1.2983     4.1718 N.2     
  18 N18            7.6666     2.4733     3.4274 N.pl3   
  19 C19            8.7047     3.4740     3.1682 C.3     
  20 C20            6.3938     2.5220     2.9855 C.2     
  21 C21            0.0038    -4.6245     0.6510 C.2     
  22 O22            0.0352    -5.0824     1.7761 O.2     
  23 N23           -0.0678    -5.4510    -0.4112 N.am    
  24 C24           -0.1078    -6.9014    -0.2093 C.3     
  25 H25            0.5089    -7.1673     0.6492 H       
  26 C26           -1.5527    -7.3443     0.0409 C.3     
  27 C27           -1.5954    -8.8690     0.1723 C.3     
  28 O28           -1.0608    -9.4630    -1.0125 O.3     
  29 C29            0.3025    -9.1223    -1.2719 C.3     
  30 C30            0.4236    -7.6077    -1.4604 C.3     
  31 H31           -0.1617    -7.3020    -2.3276 H       
  32 O32            1.7945    -7.2577    -1.6604 O.3     
  33 H33            1.1890     1.3562    -0.2515 H       
  34 H34           -0.3135     1.2206    -1.1962 H       
  35 H35           -0.3879     1.5441     0.5525 H       
  36 H36            0.0132    -1.0025    -2.0250 H       
  37 H37            0.1456    -2.7122     2.5503 H       
  38 H38           -0.3246     0.9159     2.2801 H       
  39 H39           -0.1665    -0.4616     3.3962 H       
  40 H40            2.0812    -1.3665     3.9214 H       
  41 H41            4.4357    -0.7791     4.3270 H       
  42 H42            3.9229     2.7982     2.0266 H       
  43 H43            1.5733     2.1908     1.6226 H       
  44 H44            6.4960    -0.2834     4.6803 H       
  45 H45            9.2348     3.2183     2.2507 H       
  46 H46            8.2440     4.4559     3.0601 H       
  47 H47            9.4078     3.4922     4.0009 H       
  48 H48            5.9585     3.3028     2.3795 H       
  49 H49           -0.0929    -5.0854    -1.3093 H       
  50 H50           -1.9190    -6.8891     0.9611 H       
  51 H51           -2.1791    -7.0330    -0.7950 H       
  52 H52           -1.0014    -9.1765     1.0329 H       
  53 H53           -2.6271    -9.1934     0.3079 H       
  54 H54            0.9214    -9.4331    -0.4301 H       
  55 H55            0.6380    -9.6292    -2.1766 H       
  56 H56            2.1965    -7.6702    -2.4371 H       
@<TRIPOS>BOND
   1    1    2 1
   2    1   33 1
   3    1   34 1
   4    1   35 1
   5    2    7 ar
   6    2    3 ar
   7    3    4 ar
   8    3   36 1
   9    4    5 ar
  10    5    6 ar
  11    5   21 1
  12    6    7 ar
  13    6   37 1
  14    7    8 1
  15    8    9 1
  16    8   38 1
  17    8   39 1
  18    9   14 ar
  19    9   10 ar
  20   10   11 ar
  21   10   40 1
  22   11   12 ar
  23   11   41 1
  24   12   13 ar
  25   12   15 1
  26   13   14 ar
  27   13   42 1
  28   14   43 1
  29   15   20 2
  30   15   16 1
  31   16   17 2
  32   16   44 1
  33   17   18 1
  34   18   19 1
  35   18   20 1
  36   19   45 1
  37   19   46 1
  38   19   47 1
  39   20   48 1
  40   21   22 2
  41   21   23 am
  42   23   24 1
  43   23   49 1
  44   24   25 1
  45   24   30 1
  46   24   26 1
  47   26   27 1
  48   26   50 1
  49   26   51 1
  50   27   28 1
  51   27   52 1
  52   27   53 1
  53   28   29 1
  54   29   30 1
  55   29   54 1
  56   29   55 1
  57   30   31 1
  58   30   32 1
  59   32   56 1

#	End of record

