#	Name: ASD01816189
#	Creating user name:	WinNT
#	Creation time:	15. 06. 2019 19:34

#	Modifying user name:	WinNT
#	Modification time:	15. 06. 2019 19:34

#	Program:	/corina/corina34_cracker 3.40 0067  02.08.2006

@<TRIPOS>MOLECULE
ASD01816189
  47   51    0    0    0
SMALL
NO_CHARGES


@<TRIPOS>ATOM
   1 C1            -0.2032     1.2148     0.1308 C.ar    
   2 C2            -0.1230    -0.1683     0.1148 C.ar    
   3 C3             1.1018    -0.8010     0.0636 C.ar    
   4 C4             2.2721    -0.0512     0.0279 C.ar    
   5 C5             2.1874     1.3510     0.0442 C.ar    
   6 C6             0.9464     1.9772     0.0954 C.ar    
   7 N7             3.5043    -0.6799    -0.0226 N.pl3   
   8 C8             4.6667    -0.0087    -0.0588 C.2     
   9 C9             4.7087     1.3634    -0.0478 C.2     
  10 C10            3.4414     2.1273     0.0056 C.2     
  11 C11            5.7614     2.3740    -0.0773 C.2     
  12 N12            5.1356     3.5703    -0.0439 N.am    
  13 N13            3.7507     3.3921     0.0054 N.2     
  14 C14            5.7826     4.8125    -0.0564 C.ar    
  15 C15            5.5288     5.7408     0.9476 C.ar    
  16 C16            6.6832     5.1179    -1.0680 C.ar    
  17 C17            7.3198     6.3437    -1.0777 C.ar    
  18 C18            7.0620     7.2674    -0.0813 C.ar    
  19 C19            6.1699     6.9663     0.9313 C.ar    
  20 F20            4.6571     5.4463     1.9369 F       
  21 O21            6.9650     2.1776    -0.1223 O.2     
  22 C22            3.5419    -2.1443    -0.0368 C.3     
  23 C23            3.4145    -2.6364    -1.4555 C.ar    
  24 C24            3.4802    -3.9902    -1.7259 C.ar    
  25 C25            3.3634    -4.4416    -3.0274 C.ar    
  26 C26            3.1806    -3.5391    -4.0581 C.ar    
  27 C27            3.1140    -2.1849    -3.7876 C.ar    
  28 C28            3.2264    -1.7340    -2.4859 C.ar    
  29 C29            3.6795    -4.9743    -0.6020 C.3     
  30 H30           -1.1685     1.6977     0.1665 H       
  31 H31           -1.0282    -0.7568     0.1430 H       
  32 H32            1.1517    -1.8798     0.0516 H       
  33 H33            0.8829     3.0553     0.1083 H       
  34 H34            5.5929    -0.5629    -0.0971 H       
  35 H35            6.8862     4.3974    -1.8465 H       
  36 H36            8.0203     6.5811    -1.8647 H       
  37 H37            7.5620     8.2247    -0.0917 H       
  38 H38            5.9706     7.6900     1.7078 H       
  39 H39            4.4872    -2.4876     0.3834 H       
  40 H40            2.7166    -2.5347     0.5587 H       
  41 H41            3.4154    -5.4995    -3.2388 H       
  42 H42            3.0901    -3.8917    -5.0749 H       
  43 H43            2.9715    -1.4797    -4.5930 H       
  44 H44            3.1744    -0.6761    -2.2745 H       
  45 H45            2.7167    -5.2051    -0.1462 H       
  46 H46            4.1243    -5.8887    -0.9945 H       
  47 H47            4.3417    -4.5407     0.1474 H       
@<TRIPOS>BOND
   1    1    2 ar
   2    1    6 ar
   3    1   30 1
   4    2    3 ar
   5    2   31 1
   6    3    4 ar
   7    3   32 1
   8    4    5 ar
   9    4    7 1
  10    5    6 ar
  11    5   10 1
  12    6   33 1
  13    7    8 1
  14    7   22 1
  15    8    9 2
  16    8   34 1
  17    9   10 1
  18    9   11 1
  19   10   13 2
  20   11   12 am
  21   11   21 2
  22   12   13 1
  23   12   14 1
  24   14   15 ar
  25   14   16 ar
  26   15   20 1
  27   15   19 ar
  28   16   17 ar
  29   16   35 1
  30   17   18 ar
  31   17   36 1
  32   18   19 ar
  33   18   37 1
  34   19   38 1
  35   22   23 1
  36   22   39 1
  37   22   40 1
  38   23   24 ar
  39   23   28 ar
  40   24   25 ar
  41   24   29 1
  42   25   26 ar
  43   25   41 1
  44   26   27 ar
  45   26   42 1
  46   27   28 ar
  47   27   43 1
  48   28   44 1
  49   29   45 1
  50   29   46 1
  51   29   47 1

#	End of record

