#	Name: ASD06020115
#	Creating user name:	WinNT
#	Creation time:	15. 06. 2019 21:04

#	Modifying user name:	WinNT
#	Modification time:	15. 06. 2019 21:04

#	Program:	/corina/corina34_cracker 3.40 0067  02.08.2006

@<TRIPOS>MOLECULE
ASD06020115
  37   40    0    0    0
SMALL
NO_CHARGES


@<TRIPOS>ATOM
   1 C1             2.9024     5.2802    -0.0004 C.3     
   2 O2             4.2831     5.6487     0.0039 O.3     
   3 C3             1.4730     1.8870    -0.0307 C.ar    
   4 N4             1.5909     3.1996    -0.0191 N.ar    
   5 C5             2.7835     3.7780    -0.0132 C.ar    
   6 C6             3.9160     2.9871    -0.0192 C.ar    
   7 C7             3.7557     1.6003    -0.0315 C.ar    
   8 N8             2.5256     1.0947    -0.0368 N.ar    
   9 N9             4.8614     0.7633    -0.0384 N.pl3   
  10 C10            4.6917    -0.6161     0.0615 C.ar    
  11 C11            5.7984    -1.4633    -0.0583 C.ar    
  12 C12            5.6223    -2.8477     0.0432 C.ar    
  13 C13            4.3009    -3.3157     0.2662 C.ar    
  14 C14            3.2812    -2.4205     0.3699 C.ar    
  15 N15            3.4873    -1.1157     0.2742 N.ar    
  16 S16            7.5071    -1.1408    -0.3313 S.3     
  17 C17            7.8493    -2.8657    -0.2887 C.2     
  18 N18            6.7595    -3.5323    -0.0895 N.2     
  19 F19            4.0572    -4.6401     0.3741 F       
  20 C20            9.1894    -3.4664    -0.4571 C.ar    
  21 C21            9.3482    -4.8530    -0.4054 C.ar    
  22 C22           10.6032    -5.4072    -0.5641 C.ar    
  23 C23           11.7013    -4.5925    -0.7733 C.ar    
  24 C24           11.5515    -3.2184    -0.8257 C.ar    
  25 C25           10.3018    -2.6504    -0.6745 C.ar    
  26 Cl26          10.1150    -0.9261    -0.7477 Cl      
  27 Cl27           7.9717    -5.8773    -0.1418 Cl      
  28 H28            2.4181     5.6755     0.8924 H       
  29 H29            2.4197     5.6905    -0.8875 H       
  30 H30            4.4353     6.6036     0.0121 H       
  31 H31            0.4860     1.4486    -0.0307 H       
  32 H32            4.9008     3.4305    -0.0150 H       
  33 H33            5.7530     1.1381    -0.1128 H       
  34 H34            2.2782    -2.7833     0.5396 H       
  35 H35           10.7276    -6.4793    -0.5243 H       
  36 H36           12.6805    -5.0314    -0.8960 H       
  37 H37           12.4134    -2.5883    -0.9890 H       
@<TRIPOS>BOND
   1    1    2 1
   2    1    5 1
   3    1   28 1
   4    1   29 1
   5    2   30 1
   6    3    4 ar
   7    3    8 ar
   8    3   31 1
   9    4    5 ar
  10    5    6 ar
  11    6    7 ar
  12    6   32 1
  13    7    8 ar
  14    7    9 1
  15    9   10 1
  16    9   33 1
  17   10   11 ar
  18   10   15 ar
  19   11   12 ar
  20   11   16 1
  21   12   13 ar
  22   12   18 1
  23   13   14 ar
  24   13   19 1
  25   14   15 ar
  26   14   34 1
  27   16   17 1
  28   17   18 2
  29   17   20 1
  30   20   21 ar
  31   20   25 ar
  32   21   22 ar
  33   21   27 1
  34   22   23 ar
  35   22   35 1
  36   23   24 ar
  37   23   36 1
  38   24   25 ar
  39   24   37 1
  40   25   26 1

#	End of record

