#	Name: ASD04590913
#	Creating user name:	WinNT
#	Creation time:	15. 06. 2019 20:51

#	Modifying user name:	WinNT
#	Modification time:	15. 06. 2019 20:51

#	Program:	/corina/corina34_cracker 3.40 0067  02.08.2006

@<TRIPOS>MOLECULE
ASD04590913
  62   67    0    0    0
SMALL
NO_CHARGES


@<TRIPOS>ATOM
   1 N1            -0.0171     1.3232    -0.0119 N.ar    
   2 C2             0.0017    -0.0035    -0.0051 C.ar    
   3 N3             1.1298    -0.6949    -0.0118 N.ar    
   4 C4             2.3050    -0.0728    -0.0262 C.ar    
   5 C5             2.3189     1.3366    -0.0341 C.ar    
   6 C6             1.1072     2.0202    -0.0262 C.ar    
   7 N7             3.6031    -0.5195    -0.0358 N.pl3   
   8 C8             4.4823     0.5495    -0.0499 C.ar    
   9 C9             3.7312     1.7385    -0.0495 C.ar    
  10 C10            5.8680     0.6418    -0.0633 C.ar    
  11 N11            6.4613     1.8181    -0.0753 N.ar    
  12 C12            5.7850     2.9533    -0.0753 C.ar    
  13 C13            4.4063     2.9585    -0.0629 C.ar    
  14 N14           -1.2019    -0.6887     0.0098 N.pl3   
  15 C15           -2.4019     0.0120     0.1303 C.ar    
  16 N16           -2.3783     1.3196     0.3309 N.ar    
  17 C17           -3.4885     2.0229     0.4509 C.ar    
  18 C18           -4.7291     1.4087     0.3703 C.ar    
  19 C19           -4.7935     0.0321     0.1596 C.ar    
  20 C20           -3.6094    -0.6709     0.0326 C.ar    
  21 N21           -5.9023     2.1615     0.4995 N.3     
  22 C22            4.0018    -1.9292    -0.0312 C.3     
  23 C23           -5.5954     3.5829     0.7111 C.3     
  24 C24            3.4332    -2.6415     1.2101 C.3     
  25 C25            3.3805    -2.6664    -1.2398 C.3     
  26 C26            2.9896    -4.0418    -0.6430 C.3     
  27 N27            2.5199    -3.6982     0.7236 N.3     
  28 C28           -6.7744     1.9824    -0.6698 C.3     
  29 C29           -8.0771     2.7563    -0.4545 C.3     
  30 N30           -7.7701     4.1778    -0.2429 N.3     
  31 C31           -6.8981     4.3569     0.9264 C.3     
  32 C32           -7.6051     3.8286     2.1761 C.3     
  33 C33           -6.5848     5.8436     1.1065 C.3     
  34 H34            1.0848     3.1000    -0.0316 H       
  35 H35            6.4645    -0.2585    -0.0635 H       
  36 H36            6.3203     3.8912    -0.0851 H       
  37 H37            3.8596     3.8899    -0.0633 H       
  38 H38           -1.2103    -1.6559    -0.0635 H       
  39 H39           -3.4301     3.0889     0.6140 H       
  40 H40           -5.7459    -0.4729     0.0926 H       
  41 H41           -3.6221    -1.7382    -0.1317 H       
  42 H42            5.0882    -2.0145    -0.0519 H       
  43 H43           -4.9590     3.6907     1.5895 H       
  44 H44           -5.0783     3.9775    -0.1636 H       
  45 H45            4.2439    -3.0876     1.7861 H       
  46 H46            2.8834    -1.9305     1.8268 H       
  47 H47            2.4984    -2.1383    -1.6018 H       
  48 H48            4.1139    -2.7863    -2.0371 H       
  49 H49            2.1869    -4.4983    -1.2222 H       
  50 H50            3.8559    -4.7016    -0.5974 H       
  51 H51            2.5460    -4.5053     1.3285 H       
  52 H52           -6.2707     2.3587    -1.5601 H       
  53 H53           -6.9976     0.9232    -0.7981 H       
  54 H54           -8.7135     2.6486    -1.3329 H       
  55 H55           -8.5942     2.3618     0.4202 H       
  56 H56           -7.3566     4.5852    -1.0682 H       
  57 H57           -7.8272     2.7692     2.0476 H       
  58 H58           -6.9581     3.9616     3.0432 H       
  59 H59           -8.5338     4.3787     2.3281 H       
  60 H60           -7.5129     6.3947     1.2579 H       
  61 H61           -5.9380     5.9761     1.9738 H       
  62 H62           -6.0803     6.2191     0.2163 H       
@<TRIPOS>BOND
   1    1    2 ar
   2    1    6 ar
   3    2    3 ar
   4    2   14 1
   5    3    4 ar
   6    4    5 ar
   7    4    7 1
   8    5    6 ar
   9    5    9 1
  10    6   34 1
  11    7    8 1
  12    7   22 1
  13    8    9 ar
  14    8   10 ar
  15    9   13 ar
  16   10   11 ar
  17   10   35 1
  18   11   12 ar
  19   12   13 ar
  20   12   36 1
  21   13   37 1
  22   14   15 1
  23   14   38 1
  24   15   16 ar
  25   15   20 ar
  26   16   17 ar
  27   17   18 ar
  28   17   39 1
  29   18   19 ar
  30   18   21 1
  31   19   20 ar
  32   19   40 1
  33   20   41 1
  34   21   28 1
  35   21   23 1
  36   22   24 1
  37   22   25 1
  38   22   42 1
  39   23   31 1
  40   23   43 1
  41   23   44 1
  42   24   27 1
  43   24   45 1
  44   24   46 1
  45   25   26 1
  46   25   47 1
  47   25   48 1
  48   26   27 1
  49   26   49 1
  50   26   50 1
  51   27   51 1
  52   28   29 1
  53   28   52 1
  54   28   53 1
  55   29   30 1
  56   29   54 1
  57   29   55 1
  58   30   31 1
  59   30   56 1
  60   31   32 1
  61   31   33 1
  62   32   57 1
  63   32   58 1
  64   32   59 1
  65   33   60 1
  66   33   61 1
  67   33   62 1

#	End of record

