#	Name: ASD04882136
#	Creating user name:	WinNT
#	Creation time:	15. 06. 2019 20:54

#	Modifying user name:	WinNT
#	Modification time:	15. 06. 2019 20:54

#	Program:	/corina/corina34_cracker 3.40 0067  02.08.2006

@<TRIPOS>MOLECULE
ASD04882136
  67   71    0    0    0
SMALL
NO_CHARGES


@<TRIPOS>ATOM
   1 C1            -0.4601     1.4434    -0.7055 C.2     
   2 C2            -0.3546     0.0091    -0.4199 C.2     
   3 O3             0.6652    -0.4407     0.0691 O.2     
   4 N4            -1.3870    -0.8112    -0.6987 N.am    
   5 C5            -1.2481    -2.1948    -0.5284 C.ar    
   6 C6            -2.3460    -2.9647    -0.1331 C.ar    
   7 C7            -2.2097    -4.3375     0.0358 C.ar    
   8 C8            -0.9930    -4.9444    -0.1855 C.ar    
   9 C9             0.1084    -4.1808    -0.5808 C.ar    
  10 C10           -0.0272    -2.8004    -0.7565 C.ar    
  11 N11           -3.5776    -2.3554     0.0922 N.3     
  12 C12           -3.5181    -1.4624     1.2578 C.3     
  13 C13           -4.8644    -0.7536     1.4234 C.3     
  14 N14           -5.9263    -1.7564     1.5856 N.3     
  15 C15           -5.9859    -2.6494     0.4200 C.3     
  16 C16           -4.6396    -3.3582     0.2543 C.3     
  17 C17           -7.1617    -1.1451     1.8115 C.ar    
  18 C18           -7.3846    -0.4391     2.9872 C.ar    
  19 C19           -9.6089     0.0662     2.2589 C.ar    
  20 C20           -8.1683    -1.2369     0.8589 C.ar    
  21 C21           -8.6069     0.1643     3.2071 C.ar    
  22 C22           -9.3886    -0.6308     1.0853 C.ar    
  23 C23            1.4114    -4.8310    -0.8173 C.2     
  24 N24            1.5400    -6.1624    -0.6521 N.am    
  25 O25            2.3694    -4.1656    -1.1612 O.2     
  26 C26            2.8340    -6.8080    -0.8870 C.3     
  27 C27            2.7097    -8.2886    -0.6349 C.ar    
  28 C28           -6.2937    -0.3325     4.0214 C.3     
  29 C29            0.5054     2.3809    -0.4736 C.2     
  30 C30           -0.0187     3.6129    -0.8954 C.2     
  31 C31           -1.2653     3.3764    -1.3603 C.2     
  32 O32           -1.5257     2.0673    -1.2490 O.3     
  33 C33            2.3591    -9.1382    -1.6676 C.ar    
  34 C34            2.2449   -10.4962    -1.4370 C.ar    
  35 C35            2.4816   -11.0052    -0.1725 C.ar    
  36 C36            2.8325   -10.1544     0.8606 C.ar    
  37 C37            2.9518    -8.7973     0.6275 C.ar    
  38 Cl38           2.3379   -12.7107     0.1180 Cl      
  39 H39           -2.2262    -0.4436    -1.0174 H       
  40 H40           -3.0595    -4.9297     0.3416 H       
  41 H41           -0.8902    -6.0113    -0.0530 H       
  42 H42            0.8212    -2.2083    -1.0662 H       
  43 H43           -3.3020    -2.0462     2.1525 H       
  44 H44           -2.7329    -0.7213     1.1084 H       
  45 H45           -4.8319    -0.1126     2.3044 H       
  46 H46           -5.0677    -0.1482     0.5401 H       
  47 H47           -6.7711    -3.3905     0.5694 H       
  48 H48           -6.2020    -2.0655    -0.4748 H       
  49 H49           -4.6720    -3.9992    -0.6266 H       
  50 H50           -4.4362    -3.9636     1.1377 H       
  51 H51          -10.5642     0.5389     2.4336 H       
  52 H52           -7.9968    -1.7811    -0.0581 H       
  53 H53           -8.7808     0.7133     4.1208 H       
  54 H54          -10.1732    -0.7055     0.3469 H       
  55 H55            0.7759    -6.6931    -0.3777 H       
  56 H56            3.1420    -6.6397    -1.9189 H       
  57 H57            3.5785    -6.3858    -0.2121 H       
  58 H58           -5.7342     0.5899     3.8656 H       
  59 H59           -6.7366    -0.3250     5.0173 H       
  60 H60           -5.6211    -1.1854     3.9293 H       
  61 H61            1.4827     2.2081    -0.0476 H       
  62 H62            0.4803     4.5698    -0.8554 H       
  63 H63           -1.9392     4.1200    -1.7595 H       
  64 H64            2.1740    -8.7407    -2.6545 H       
  65 H65            1.9706   -11.1598    -2.2437 H       
  66 H66            3.0174   -10.5512     1.8479 H       
  67 H67            3.2257    -8.1330     1.4338 H       
@<TRIPOS>BOND
   1    1    2 1
   2    1   29 2
   3    1   32 1
   4    2    3 2
   5    2    4 am
   6    4    5 1
   7    4   39 1
   8    5    6 ar
   9    5   10 ar
  10    6    7 ar
  11    6   11 1
  12    7    8 ar
  13    7   40 1
  14    8    9 ar
  15    8   41 1
  16    9   10 ar
  17    9   23 1
  18   10   42 1
  19   11   12 1
  20   11   16 1
  21   12   13 1
  22   12   43 1
  23   12   44 1
  24   13   14 1
  25   13   45 1
  26   13   46 1
  27   14   15 1
  28   14   17 1
  29   15   16 1
  30   15   47 1
  31   15   48 1
  32   16   49 1
  33   16   50 1
  34   17   18 ar
  35   17   20 ar
  36   18   21 ar
  37   18   28 1
  38   19   21 ar
  39   19   22 ar
  40   19   51 1
  41   20   22 ar
  42   20   52 1
  43   21   53 1
  44   22   54 1
  45   23   24 am
  46   23   25 2
  47   24   26 1
  48   24   55 1
  49   26   27 1
  50   26   56 1
  51   26   57 1
  52   27   33 ar
  53   27   37 ar
  54   28   58 1
  55   28   59 1
  56   28   60 1
  57   29   30 1
  58   29   61 1
  59   30   31 2
  60   30   62 1
  61   31   32 1
  62   31   63 1
  63   33   34 ar
  64   33   64 1
  65   34   35 ar
  66   34   65 1
  67   35   36 ar
  68   35   38 1
  69   36   37 ar
  70   36   66 1
  71   37   67 1

#	End of record

