#	Name: ASD03080051
#	Creating user name:	WinNT
#	Creation time:	15. 06. 2019 20:26

#	Modifying user name:	WinNT
#	Modification time:	15. 06. 2019 20:26

#	Program:	/corina/corina34_cracker 3.40 0067  02.08.2006

@<TRIPOS>MOLECULE
ASD03080051
  43   45    0    0    0
SMALL
NO_CHARGES


@<TRIPOS>ATOM
   1 C1            -0.0166     1.3756     0.0096 C.ar    
   2 C2             0.0021    -0.0041     0.0020 C.ar    
   3 C3             1.2216    -0.6822    -0.0132 C.ar    
   4 C4             2.4154     0.0412    -0.0207 C.ar    
   5 C5             2.3827     1.4202    -0.0130 C.ar    
   6 C6             1.1700     2.0865     0.0021 C.ar    
   7 S7            -1.5555     2.2338     0.0215 S.o2    
   8 O8            -1.2997     3.5237    -0.5171 O.2     
   9 O9            -2.5172     1.3408    -0.5232 O.2     
  10 N10           -1.9761     2.4640     1.6066 N.am    
  11 O11            0.1864    -2.9797    -0.0152 O.3     
  12 N12            0.5554    -4.1349    -0.0252 N.2     
  13 C13            1.8624    -4.1946    -0.0381 C.2     
  14 N14            2.3236    -2.9265    -0.0356 N.2     
  15 C15            1.2492    -2.1603    -0.0210 C.2     
  16 C16            4.0769    -5.3527    -0.0648 C.ar    
  17 C17            2.6859    -5.4296    -0.0522 C.ar    
  18 C18            2.0786    -6.6878    -0.0525 C.ar    
  19 C19            2.8909    -7.8091    -0.0655 C.ar    
  20 C20            4.2642    -7.6492    -0.0775 C.ar    
  21 N21            4.8089    -6.4476    -0.0764 N.ar    
  22 C22           -1.5442     3.6738     2.3108 C.3     
  23 C23           -2.6528     4.7261     2.2440 C.3     
  24 C24           -2.7801     1.4578     2.3046 C.3     
  25 C25           -1.8563     0.5066     3.0680 C.3     
  26 H26           -0.9251    -0.5579     0.0082 H       
  27 H27            3.3626    -0.4776    -0.0322 H       
  28 H28            3.3057     1.9811    -0.0184 H       
  29 H29            1.1499     3.1663     0.0081 H       
  30 H30            4.5593    -4.3864    -0.0692 H       
  31 H31            1.0029    -6.7834    -0.0426 H       
  32 H32            2.4564    -8.7978    -0.0658 H       
  33 H33            4.9009    -8.5215    -0.0876 H       
  34 H34           -1.3347     3.4324     3.3529 H       
  35 H35           -0.6424     4.0657     1.8403 H       
  36 H36           -2.3314     5.6263     2.7679 H       
  37 H37           -2.8623     4.9675     1.2019 H       
  38 H38           -3.5546     4.3342     2.7145 H       
  39 H39           -3.4522     1.9523     3.0059 H       
  40 H40           -3.3644     0.8922     1.5788 H       
  41 H41           -2.4546    -0.2420     3.5874 H       
  42 H42           -1.1842     0.0121     2.3668 H       
  43 H43           -1.2721     1.0722     3.7939 H       
@<TRIPOS>BOND
   1    1    2 ar
   2    1    6 ar
   3    1    7 1
   4    2    3 ar
   5    2   26 1
   6    3    4 ar
   7    3   15 1
   8    4    5 ar
   9    4   27 1
  10    5    6 ar
  11    5   28 1
  12    6   29 1
  13    7    8 2
  14    7    9 2
  15    7   10 am
  16   10   22 1
  17   10   24 1
  18   11   12 1
  19   11   15 1
  20   12   13 2
  21   13   14 1
  22   13   17 1
  23   14   15 2
  24   16   17 ar
  25   16   21 ar
  26   16   30 1
  27   17   18 ar
  28   18   19 ar
  29   18   31 1
  30   19   20 ar
  31   19   32 1
  32   20   21 ar
  33   20   33 1
  34   22   23 1
  35   22   34 1
  36   22   35 1
  37   23   36 1
  38   23   37 1
  39   23   38 1
  40   24   25 1
  41   24   39 1
  42   24   40 1
  43   25   41 1
  44   25   42 1
  45   25   43 1

#	End of record

