#	Name: ASD01914077
#	Creating user name:	WinNT
#	Creation time:	15. 06. 2019 20:02

#	Modifying user name:	WinNT
#	Modification time:	15. 06. 2019 20:02

#	Program:	/corina/corina34_cracker 3.40 0067  02.08.2006

@<TRIPOS>MOLECULE
ASD01914077
  35   37    0    0    0
SMALL
NO_CHARGES


@<TRIPOS>ATOM
   1 C1            -0.0167     1.3810     0.0096 C.ar    
   2 C2             0.0021    -0.0041     0.0020 C.ar    
   3 C3             2.4001     0.0319    -0.0208 C.ar    
   4 C4             2.3774     1.4190    -0.0131 C.ar    
   5 O5             3.5874    -0.6291    -0.0362 O.3     
   6 C6             3.5349    -2.0571    -0.0433 C.3     
   7 C7             4.9362    -2.6112    -0.0603 C.ar    
   8 N8             5.1171    -3.9180    -0.0691 N.ar    
   9 C9             6.3201    -4.4536    -0.0840 C.ar    
  10 C10            7.4570    -3.6445    -0.0905 C.ar    
  11 C11            7.2971    -2.2532    -0.0814 C.ar    
  12 C12            6.0119    -1.7411    -0.0720 C.ar    
  13 C13            8.8071    -4.2456    -0.1062 C.2     
  14 N14            8.9479    -5.5859    -0.1144 N.am    
  15 O15            9.7905    -3.5311    -0.1117 O.2     
  16 C16            1.2093    -0.6795    -0.0132 C.ar    
  17 C17           10.2167    -6.1509    -0.1291 C.2     
  18 F18           -1.1586    -0.6954     0.0099 F       
  19 C19            1.1696     2.0900     0.0021 C.ar    
  20 N20           10.4627    -7.4237    -0.1380 N.2     
  21 C21           11.7316    -7.7868    -0.1524 C.2     
  22 C22           12.5989    -6.7727    -0.1560 C.2     
  23 S23           11.6812    -5.2689    -0.1457 S.3     
  24 H24           -0.9596     1.9075     0.0170 H       
  25 H25            3.3037     1.9743    -0.0186 H       
  26 H26            3.0170    -2.4061     0.8500 H       
  27 H27            2.9992    -2.3965    -0.9299 H       
  28 H28            6.4277    -5.5282    -0.0909 H       
  29 H29            8.1548    -1.5970    -0.0857 H       
  30 H30            5.8500    -0.6733    -0.0648 H       
  31 H31            8.1631    -6.1561    -0.1100 H       
  32 H32            1.2246    -1.7594    -0.0188 H       
  33 H33            1.1526     3.1698     0.0078 H       
  34 H34           12.0428    -8.8210    -0.1604 H       
  35 H35           13.6755    -6.8588    -0.1666 H       
@<TRIPOS>BOND
   1    1    2 ar
   2    1   19 ar
   3    1   24 1
   4    2   16 ar
   5    2   18 1
   6    3    4 ar
   7    3    5 1
   8    3   16 ar
   9    4   19 ar
  10    4   25 1
  11    5    6 1
  12    6    7 1
  13    6   26 1
  14    6   27 1
  15    7    8 ar
  16    7   12 ar
  17    8    9 ar
  18    9   10 ar
  19    9   28 1
  20   10   11 ar
  21   10   13 1
  22   11   12 ar
  23   11   29 1
  24   12   30 1
  25   13   14 am
  26   13   15 2
  27   14   17 1
  28   14   31 1
  29   16   32 1
  30   17   20 2
  31   17   23 1
  32   19   33 1
  33   20   21 1
  34   21   22 2
  35   21   34 1
  36   22   23 1
  37   22   35 1

#	End of record

