#	Name: ASD04591110
#	Creating user name:	WinNT
#	Creation time:	15. 06. 2019 20:52

#	Modifying user name:	WinNT
#	Modification time:	15. 06. 2019 20:52

#	Program:	/corina/corina34_cracker 3.40 0067  02.08.2006

@<TRIPOS>MOLECULE
ASD04591110
  71   76    0    0    0
SMALL
NO_CHARGES


@<TRIPOS>ATOM
   1 N1            -0.0147     1.3062     0.2524 N.ar    
   2 C2            -0.0037    -0.0177     0.3381 C.ar    
   3 N3             1.1191    -0.7107     0.4367 N.ar    
   4 C4             2.2965    -0.0931     0.4536 C.ar    
   5 C5             2.3187     1.3133     0.3642 C.ar    
   6 C6             1.1123     1.9988     0.2621 C.ar    
   7 N7             3.5907    -0.5424     0.5443 N.pl3   
   8 C8             4.4751     0.5220     0.5181 C.ar    
   9 C9             3.7318     1.7106     0.4062 C.ar    
  10 C10            5.8598     0.6104     0.5790 C.ar    
  11 N11            6.4593     1.7826     0.5326 N.ar    
  12 C12            5.7904     2.9173     0.4276 C.ar    
  13 C13            4.4133     2.9263     0.3609 C.ar    
  14 N14           -1.2104    -0.6986     0.3244 N.pl3   
  15 C15           -2.4019     0.0039     0.2223 C.2     
  16 N16           -3.5816    -0.5278     0.2002 N.2     
  17 C17            3.9807    -1.9503     0.6535 C.3     
  18 C18            3.3650    -2.5711     1.9197 C.3     
  19 C19            2.4549    -3.7239     1.4476 C.3     
  20 C20            3.0268    -4.1164     0.0627 C.3     
  21 C21            3.4233    -2.7474    -0.5439 C.3     
  22 C22           -4.6191     0.3069     0.0978 C.2     
  23 C23           -4.2949     1.6166     0.0297 C.2     
  24 S24           -2.5404     1.7554     0.1107 S.3     
  25 C25           -6.0127    -0.1652     0.0613 C.2     
  26 O26           -6.9276     0.6338     0.1276 O.2     
  27 N27           -6.2752    -1.4829    -0.0455 N.am    
  28 C28           -5.1899    -2.4449    -0.2830 C.3     
  29 C29           -5.2299    -3.5108     0.8190 C.3     
  30 N30           -6.6065    -4.0113     0.9384 N.am    
  31 C31           -7.6919    -3.0493     1.1759 C.3     
  32 C32           -7.6511    -1.9840     0.0795 C.3     
  33 C33           -6.8690    -5.3290     0.8316 C.2     
  34 O34           -5.9634    -6.1149     0.6348 O.2     
  35 O35           -8.1347    -5.7744     0.9430 O.3     
  36 C36           -8.3431    -7.2059     0.8173 C.3     
  37 C37           -7.5537    -7.9338     1.9072 C.3     
  38 C38           -9.8327    -7.5197     0.9707 C.3     
  39 C39           -7.8627    -7.6724    -0.5583 C.3     
  40 H40            1.0963     3.0764     0.1917 H       
  41 H41            6.4503    -0.2897     0.6654 H       
  42 H42            6.3305     3.8520     0.3940 H       
  43 H43            3.8726     3.8573     0.2752 H       
  44 H44           -1.2219    -1.6666     0.3861 H       
  45 H45            5.0669    -2.0351     0.6864 H       
  46 H46            4.1523    -2.9580     2.5667 H       
  47 H47            2.7760    -1.8249     2.4530 H       
  48 H48            2.5159    -4.5652     2.1379 H       
  49 H49            1.4245    -3.3817     1.3518 H       
  50 H50            3.9012    -4.7577     0.1734 H       
  51 H51            2.2645    -4.6025    -0.5463 H       
  52 H52            2.5492    -2.2476    -0.9613 H       
  53 H53            4.1909    -2.8763    -1.3069 H       
  54 H54           -4.9915     2.4375    -0.0560 H       
  55 H55           -5.3270    -2.9185    -1.2552 H       
  56 H56           -4.2306    -1.9279    -0.2573 H       
  57 H57           -4.5633    -4.3326     0.5575 H       
  58 H58           -4.9175    -3.0701     1.7657 H       
  59 H59           -8.6511    -3.5663     1.1502 H       
  60 H60           -7.5547    -2.5757     2.1481 H       
  61 H61           -8.3181    -1.1629     0.3422 H       
  62 H62           -7.9626    -2.4226    -0.8685 H       
  63 H63           -7.8960    -7.6015     2.8872 H       
  64 H64           -7.7102    -9.0084     1.8128 H       
  65 H65           -6.4925    -7.7102     1.7979 H       
  66 H66          -10.3951    -7.0011     0.1943 H       
  67 H67           -9.9892    -8.5943     0.8763 H       
  68 H68          -10.1750    -7.1874     1.9507 H       
  69 H69           -6.8014    -7.4488    -0.6676 H       
  70 H70           -8.0191    -8.7470    -0.6527 H       
  71 H71           -8.4251    -7.1538    -1.3348 H       
@<TRIPOS>BOND
   1    1    2 ar
   2    1    6 ar
   3    2    3 ar
   4    2   14 1
   5    3    4 ar
   6    4    5 ar
   7    4    7 1
   8    5    6 ar
   9    5    9 1
  10    6   40 1
  11    7    8 1
  12    7   17 1
  13    8    9 ar
  14    8   10 ar
  15    9   13 ar
  16   10   11 ar
  17   10   41 1
  18   11   12 ar
  19   12   13 ar
  20   12   42 1
  21   13   43 1
  22   14   15 1
  23   14   44 1
  24   15   16 2
  25   15   24 1
  26   16   22 1
  27   17   18 1
  28   17   21 1
  29   17   45 1
  30   18   19 1
  31   18   46 1
  32   18   47 1
  33   19   20 1
  34   19   48 1
  35   19   49 1
  36   20   21 1
  37   20   50 1
  38   20   51 1
  39   21   52 1
  40   21   53 1
  41   22   23 2
  42   22   25 1
  43   23   24 1
  44   23   54 1
  45   25   26 2
  46   25   27 am
  47   27   28 1
  48   27   32 1
  49   28   29 1
  50   28   55 1
  51   28   56 1
  52   29   30 1
  53   29   57 1
  54   29   58 1
  55   30   31 1
  56   30   33 am
  57   31   32 1
  58   31   59 1
  59   31   60 1
  60   32   61 1
  61   32   62 1
  62   33   34 2
  63   33   35 1
  64   35   36 1
  65   36   37 1
  66   36   38 1
  67   36   39 1
  68   37   63 1
  69   37   64 1
  70   37   65 1
  71   38   66 1
  72   38   67 1
  73   38   68 1
  74   39   69 1
  75   39   70 1
  76   39   71 1

#	End of record

