#	Name: ASD01140320
#	Creating user name:	WinNT
#	Creation time:	15. 06. 2019 19:00

#	Modifying user name:	WinNT
#	Modification time:	15. 06. 2019 19:00

#	Program:	/corina/corina34_cracker 3.40 0067  02.08.2006

@<TRIPOS>MOLECULE
ASD01140320
  59   62    0    0    0
SMALL
NO_CHARGES


@<TRIPOS>ATOM
   1 C1            -0.1149     1.1743     0.2888 C.ar    
   2 C2            -0.0151    -0.2193     0.2753 C.ar    
   3 C3             1.2298    -0.8245     0.1562 C.ar    
   4 C4             2.3900    -0.0466     0.0496 C.ar    
   5 C5             2.2763     1.3454     0.0883 C.ar    
   6 C6             1.0234     1.9429     0.1958 C.ar    
   7 C7             3.6683    -0.7447    -0.1294 C.2     
   8 N8             4.8014    -0.4683     0.4148 N.2     
   9 C9             4.9524     0.6414     1.3632 C.3     
  10 C10            4.5944     1.9140     0.6403 C.2     
  11 N11            3.3989     2.1774     0.0551 N.pl3   
  12 C12            3.4911     3.4008    -0.5338 C.2     
  13 C13            5.3872     3.0025     0.4427 C.2     
  14 N14            4.6715     3.8964    -0.2924 N.2     
  15 C15            4.0119     0.4385     2.5528 C.3     
  16 C16            3.6526    -1.9071    -1.0460 C.ar    
  17 C17            3.4041    -1.7231    -2.4088 C.ar    
  18 C18            3.8914    -3.1904    -0.5543 C.ar    
  19 C19            3.8759    -4.2696    -1.4134 C.ar    
  20 C20            3.6242    -4.0829    -2.7613 C.ar    
  21 C21            3.3915    -2.8138    -3.2584 C.ar    
  22 C22           -1.1950    -1.0233     0.3847 C.1     
  23 C23           -2.1624    -1.6824     0.4743 C.1     
  24 F24            3.1763    -0.4832    -2.8947 F       
  25 Si25          -3.7280    -2.7491     0.6194 Si      
  26 C26           -3.2584    -4.5512     0.5697 C.3     
  27 C27           -4.5870    -2.3754     2.2297 C.3     
  28 C28           -4.8737    -2.3666    -0.7990 C.3     
  29 C29            6.7636     3.1799     0.9325 C.2     
  30 O30            7.2950     2.3017     1.5834 O.2     
  31 O31            7.4350     4.3164     0.6592 O.3     
  32 C32            8.7885     4.4224     1.1741 C.3     
  33 C33            9.3851     5.7709     0.7661 C.3     
  34 H34           -1.0826     1.6472     0.3675 H       
  35 H35            1.3037    -1.9019     0.1460 H       
  36 H36            0.9437     3.0199     0.2067 H       
  37 H37            5.9841     0.6919     1.7113 H       
  38 H38            2.7129     3.8821    -1.1075 H       
  39 H39            4.2558    -0.4987     3.0531 H       
  40 H40            4.1286     1.2654     3.2533 H       
  41 H41            2.9813     0.4043     2.1995 H       
  42 H42            4.0885    -3.3387     0.4971 H       
  43 H43            4.0612    -5.2633    -1.0330 H       
  44 H44            3.6134    -4.9319    -3.4287 H       
  45 H45            3.1957    -2.6748    -4.3114 H       
  46 H46           -2.5881    -4.7750     1.3996 H       
  47 H47           -4.1566    -5.1632     0.6530 H       
  48 H48           -2.7558    -4.7699    -0.3724 H       
  49 H49           -4.8618    -1.3210     2.2588 H       
  50 H50           -5.4852    -2.9873     2.3130 H       
  51 H51           -3.9167    -2.5992     3.0596 H       
  52 H52           -4.3711    -2.5852    -1.7411 H       
  53 H53           -5.7719    -2.9785    -0.7157 H       
  54 H54           -5.1485    -1.3122    -0.7699 H       
  55 H55            8.7705     4.3471     2.2614 H       
  56 H56            9.3974     3.6167     0.7641 H       
  57 H57            9.4031     5.8462    -0.3212 H       
  58 H58            8.7762     6.5767     1.1761 H       
  59 H59           10.4012     5.8506     1.1526 H       
@<TRIPOS>BOND
   1    1    2 ar
   2    1    6 ar
   3    1   34 1
   4    2    3 ar
   5    2   22 1
   6    3    4 ar
   7    3   35 1
   8    4    5 ar
   9    4    7 1
  10    5    6 ar
  11    5   11 1
  12    6   36 1
  13    7    8 2
  14    7   16 1
  15    8    9 1
  16    9   10 1
  17    9   15 1
  18    9   37 1
  19   10   11 1
  20   10   13 2
  21   11   12 1
  22   12   14 2
  23   12   38 1
  24   13   14 1
  25   13   29 1
  26   15   39 1
  27   15   40 1
  28   15   41 1
  29   16   17 ar
  30   16   18 ar
  31   17   24 1
  32   17   21 ar
  33   18   19 ar
  34   18   42 1
  35   19   20 ar
  36   19   43 1
  37   20   21 ar
  38   20   44 1
  39   21   45 1
  40   22   23 3
  41   23   25 1
  42   25   26 1
  43   25   27 1
  44   25   28 1
  45   26   46 1
  46   26   47 1
  47   26   48 1
  48   27   49 1
  49   27   50 1
  50   27   51 1
  51   28   52 1
  52   28   53 1
  53   28   54 1
  54   29   30 2
  55   29   31 1
  56   31   32 1
  57   32   33 1
  58   32   55 1
  59   32   56 1
  60   33   57 1
  61   33   58 1
  62   33   59 1

#	End of record

