#	Name: ASD06350028
#	Creating user name:	WinNT
#	Creation time:	15. 06. 2019 21:06

#	Modifying user name:	WinNT
#	Modification time:	15. 06. 2019 21:06

#	Program:	/corina/corina34_cracker 3.40 0067  02.08.2006

@<TRIPOS>MOLECULE
ASD06350028
  47   50    0    0    0
SMALL
NO_CHARGES


@<TRIPOS>ATOM
   1 F1             1.5372     1.5109    -0.3477 F       
   2 C2             1.2952     2.8298    -0.1826 C.ar    
   3 C3             0.7750     3.2928     1.0145 C.ar    
   4 C4             0.5274     4.6406     1.1854 C.ar    
   5 C5             0.8004     5.5318     0.1560 C.ar    
   6 C6             1.3220     5.0654    -1.0435 C.ar    
   7 C7             1.5731     3.7176    -1.2086 C.ar    
   8 N8             0.5495     6.8991     0.3272 N.am    
   9 C9             1.5755     7.7333     0.6271 C.2     
  10 C10            1.3723     9.0644     0.8005 C.2     
  11 C11            0.0910     9.5997     0.6709 C.2     
  12 C12           -0.9684     8.7481     0.3623 C.2     
  13 C13           -0.7058     7.3653     0.1859 C.2     
  14 O14           -1.6153     6.6000    -0.0845 O.2     
  15 C15           -2.3337     9.2747     0.2174 C.2     
  16 O16           -2.5697    10.4367     0.4900 O.2     
  17 N17           -3.3237     8.4702    -0.2175 N.am    
  18 C18           -4.6449     8.9332    -0.2360 C.ar    
  19 C19           -5.6909     8.0585     0.0254 C.ar    
  20 C20           -6.9947     8.5150     0.0073 C.ar    
  21 C21           -7.2599     9.8468    -0.2720 C.ar    
  22 C22           -6.2141    10.7238    -0.5335 C.ar    
  23 C23           -4.9091    10.2689    -0.5103 C.ar    
  24 F24           -6.4725    12.0217    -0.8056 F       
  25 O25           -8.5439    10.2950    -0.2906 O.3     
  26 C26           -9.0596    10.6994    -1.4769 C.ar    
  27 N27           -8.3662    10.5448    -2.6016 N.ar    
  28 C28           -8.8592    10.9348    -3.7597 C.ar    
  29 N29          -10.0495    11.4905    -3.8578 N.ar    
  30 C30          -10.8054    11.6801    -2.7781 C.ar    
  31 C31          -10.3224    11.2761    -1.5363 C.ar    
  32 N32          -12.0567    12.2659    -2.8895 N.pl3   
  33 H33            0.5625     2.5994     1.8147 H       
  34 H34            0.1214     5.0012     2.1190 H       
  35 H35            1.5347     5.7569    -1.8455 H       
  36 H36            1.9791     3.3545    -2.1412 H       
  37 H37            2.5727     7.3315     0.7303 H       
  38 H38            2.2045     9.7100     1.0397 H       
  39 H39           -0.0778    10.6576     0.8079 H       
  40 H40           -3.1209     7.5703    -0.5176 H       
  41 H41           -5.4853     7.0208     0.2428 H       
  42 H42           -7.8079     7.8339     0.2104 H       
  43 H43           -4.0958    10.9499    -0.7134 H       
  44 H44           -8.2703    10.7952    -4.6542 H       
  45 H45          -10.9103    11.4154    -0.6411 H       
  46 H46          -12.3876    12.5413    -3.7587 H       
  47 H47          -12.6013    12.4006    -2.0982 H       
@<TRIPOS>BOND
   1    1    2 1
   2    2    3 ar
   3    2    7 ar
   4    3    4 ar
   5    3   33 1
   6    4    5 ar
   7    4   34 1
   8    5    6 ar
   9    5    8 1
  10    6    7 ar
  11    6   35 1
  12    7   36 1
  13    8    9 1
  14    8   13 am
  15    9   10 2
  16    9   37 1
  17   10   11 1
  18   10   38 1
  19   11   12 2
  20   11   39 1
  21   12   13 1
  22   12   15 1
  23   13   14 2
  24   15   16 2
  25   15   17 am
  26   17   18 1
  27   17   40 1
  28   18   19 ar
  29   18   23 ar
  30   19   20 ar
  31   19   41 1
  32   20   21 ar
  33   20   42 1
  34   21   22 ar
  35   21   25 1
  36   22   23 ar
  37   22   24 1
  38   23   43 1
  39   25   26 1
  40   26   27 ar
  41   26   31 ar
  42   27   28 ar
  43   28   29 ar
  44   28   44 1
  45   29   30 ar
  46   30   31 ar
  47   30   32 1
  48   31   45 1
  49   32   46 1
  50   32   47 1

#	End of record

