#	Name: ASD02198630
#	Creating user name:	WinNT
#	Creation time:	15. 06. 2019 20:19

#	Modifying user name:	WinNT
#	Modification time:	15. 06. 2019 20:19

#	Program:	/corina/corina34_cracker 3.40 0067  02.08.2006

@<TRIPOS>MOLECULE
ASD02198630
  54   58    0    0    0
SMALL
NO_CHARGES


@<TRIPOS>ATOM
   1 C1             0.0066     1.5060     0.1349 C.2     
   2 C2             0.0730     0.1660    -0.0929 C.2     
   3 N3            -1.0539    -0.5635    -0.2632 N.pl3   
   4 N4            -2.2316    -0.0592    -0.2234 N.2     
   5 C5            -2.4385     1.2236    -0.0105 C.2     
   6 C6            -1.2794     2.1038     0.1932 C.2     
   7 C7            -0.9272    -1.9375    -0.4950 C.ar    
   8 C8            -1.5125    -2.5099    -1.6176 C.ar    
   9 C9            -1.3818    -3.8812    -1.8432 C.ar    
  10 C10           -0.6643    -4.6669    -0.9396 C.ar    
  11 C11           -0.0870    -4.0881     0.1722 C.ar    
  12 C12           -0.2111    -2.7291     0.3942 C.ar    
  13 C13           -3.8114     1.7674     0.0284 C.2     
  14 N14           -4.3736     2.4804     1.0497 N.pl3   
  15 N15           -5.6849     2.7998     0.6757 N.2     
  16 C16           -5.9148     2.3071    -0.5153 C.2     
  17 C17           -4.7641     1.6563    -0.9604 C.2     
  18 C18           -3.7503     2.8289     2.2546 C.ar    
  19 C19           -3.9196     4.1020     2.7827 C.ar    
  20 C20           -3.3041     4.4425     3.9713 C.ar    
  21 C21           -2.5199     3.5171     4.6353 C.ar    
  22 C22           -2.3493     2.2485     4.1120 C.ar    
  23 C23           -2.9665     1.9002     2.9266 C.ar    
  24 O24           -1.4167     3.3018     0.3944 O.2     
  25 O25            1.1344     2.2465     0.3066 O.3     
  26 C26            2.3823     1.5538     0.2366 C.3     
  27 F27           -2.2056    -1.7425    -2.4870 F       
  28 C28           -2.0013    -4.4992    -3.0342 C.2     
  29 C29           -3.3049    -4.6826    -3.0493 C.2     
  30 C30           -4.0216    -5.3104    -4.2111 C.3     
  31 O31           -3.1755    -5.3207    -5.3626 O.3     
  32 C32           -1.8764    -5.8651    -5.1003 C.3     
  33 C33           -1.1211    -4.8910    -4.1893 C.3     
  34 H34            1.0361    -0.3207    -0.1387 H       
  35 H35           -0.5613    -5.7283    -1.1104 H       
  36 H36            0.4675    -4.6985     0.8696 H       
  37 H37            0.2433    -2.2827     1.2664 H       
  38 H38           -6.8409     2.3938    -1.0641 H       
  39 H39           -4.6439     1.1504    -1.9070 H       
  40 H40           -4.5317     4.8253     2.2644 H       
  41 H41           -3.4350     5.4326     4.3824 H       
  42 H42           -2.0393     3.7858     5.5644 H       
  43 H43           -1.7360     1.5281     4.6328 H       
  44 H44           -2.8329     0.9093     2.5184 H       
  45 H45            2.4155     0.7860     1.0096 H       
  46 H46            2.4845     1.0875    -0.7433 H       
  47 H47            3.1987     2.2595     0.3901 H       
  48 H48           -3.8823    -4.3695    -2.1919 H       
  49 H49           -4.2969    -6.3337    -3.9558 H       
  50 H50           -4.9237    -4.7394    -4.4306 H       
  51 H51           -1.9770    -6.8314    -4.6061 H       
  52 H52           -1.3330    -5.9844    -6.0377 H       
  53 H53           -0.8422    -4.0040    -4.7581 H       
  54 H54           -0.2220    -5.3744    -3.8071 H       
@<TRIPOS>BOND
   1    1    2 2
   2    1   25 1
   3    1    6 1
   4    2    3 1
   5    2   34 1
   6    3    4 1
   7    3    7 1
   8    4    5 2
   9    5    6 1
  10    5   13 1
  11    6   24 2
  12    7    8 ar
  13    7   12 ar
  14    8    9 ar
  15    8   27 1
  16    9   10 ar
  17    9   28 1
  18   10   11 ar
  19   10   35 1
  20   11   12 ar
  21   11   36 1
  22   12   37 1
  23   13   14 1
  24   13   17 2
  25   14   15 1
  26   14   18 1
  27   15   16 2
  28   16   17 1
  29   16   38 1
  30   17   39 1
  31   18   19 ar
  32   18   23 ar
  33   19   20 ar
  34   19   40 1
  35   20   21 ar
  36   20   41 1
  37   21   22 ar
  38   21   42 1
  39   22   23 ar
  40   22   43 1
  41   23   44 1
  42   25   26 1
  43   26   45 1
  44   26   46 1
  45   26   47 1
  46   28   29 2
  47   28   33 1
  48   29   30 1
  49   29   48 1
  50   30   31 1
  51   30   49 1
  52   30   50 1
  53   31   32 1
  54   32   33 1
  55   32   51 1
  56   32   52 1
  57   33   53 1
  58   33   54 1

#	End of record

