#	Name: ASD05870001
#	Creating user name:	WinNT
#	Creation time:	15. 06. 2019 21:04

#	Modifying user name:	WinNT
#	Modification time:	15. 06. 2019 21:04

#	Program:	/corina/corina34_cracker 3.40 0067  02.08.2006

@<TRIPOS>MOLECULE
ASD05870001
 100  107    0    0    0
SMALL
NO_CHARGES


@<TRIPOS>ATOM
   1 C1            -0.0488     1.3200     0.1176 C.2     
   2 C2             0.0383    -0.0394    -0.1790 C.2     
   3 C3             1.3160    -0.6412    -0.2973 C.2     
   4 O4             2.4442     0.0649    -0.1305 O.3     
   5 C5             1.2071     2.0655     0.2940 C.ar    
   6 C6            -1.1888    -0.8446    -0.3676 C.ar    
   7 C7            -2.0234    -0.6026    -1.4598 C.ar    
   8 C8            -3.1658    -1.3549    -1.6321 C.ar    
   9 C9            -3.4865    -2.3523    -0.7208 C.ar    
  10 C10           -2.6589    -2.5958     0.3673 C.ar    
  11 C11           -1.5115    -1.8519     0.5430 C.ar    
  12 C12            2.3727     4.1025     0.7512 C.ar    
  13 C13            1.1942     3.4308     0.5922 C.ar    
  14 C14            2.4294     1.3840     0.1582 C.ar    
  15 C15            3.6173     2.0806     0.3241 C.ar    
  16 C16            3.5873     3.4338     0.6204 C.ar    
  17 C17           -1.3591     1.9911     0.2446 C.ar    
  18 C18           -2.2149     1.6652     1.2990 C.ar    
  19 C19           -3.4364     2.2959     1.4118 C.ar    
  20 C20           -3.8147     3.2492     0.4829 C.ar    
  21 C21           -2.9719     3.5767    -0.5647 C.ar    
  22 C22           -1.7449     2.9583    -0.6860 C.ar    
  23 O23           -4.6134    -3.0917    -0.8940 O.3     
  24 S24           -4.4070    -4.3488    -1.7268 S.o2    
  25 O25            1.3914    -1.8285    -0.5564 O.2     
  26 O26           -5.7286    -4.8160    -2.1156 O.co2   
  27 O27           -3.6042    -3.9630    -2.8768 O.co2   
  28 O28           -3.7177    -5.3068    -0.8764 O.co2   
  29 O29            4.7513     4.1140     0.7810 O.3     
  30 C30            4.6522     5.5075     1.0815 C.3     
  31 C31            6.0558     6.0992     1.2257 C.3     
  32 C32            5.9496     7.5913     1.5475 C.3     
  33 C33            7.3532     8.1829     1.6917 C.3     
  34 N34            7.2516     9.6116     1.9997 N.pl3   
  35 C35            7.8184    10.2368     3.0575 C.2     
  36 N36            6.6125    10.4887     1.3077 N.2     
  37 N37            6.7223    11.6491     1.8518 N.2     
  38 C38            7.4714    11.5410     2.9548 C.2     
  39 C39            7.8560    12.6532     3.8962 C.3     
  40 O40            8.6653    12.1270     4.9498 O.3     
  41 C41            9.1000    13.0052     5.8912 C.ar    
  42 C42            8.7479    14.3455     5.8030 C.ar    
  43 C43            9.8905    12.5589     6.9421 C.ar    
  44 C44           10.3330    13.4467     7.8994 C.ar    
  45 C45            9.9859    14.7958     7.8111 C.ar    
  46 C46            9.1869    15.2395     6.7562 C.ar    
  47 C47           10.4589    15.7520     8.8365 C.2     
  48 C48           10.0227    15.6569    10.2376 C.2     
  49 O49           10.8489    16.1266    11.1986 O.3     
  50 C50           11.7495    17.6790     9.6218 C.ar    
  51 C51           11.3468    16.7859     8.5202 C.2     
  52 C52           12.7554    19.7104    10.4090 C.ar    
  53 C53           12.4024    18.8859     9.3619 C.ar    
  54 C54           11.4699    17.3038    10.9454 C.ar    
  55 C55           11.8397    18.1441    11.9876 C.ar    
  56 C56           12.4776    19.3383    11.7169 C.ar    
  57 C57           11.8574    16.9736     7.1465 C.ar    
  58 C58           11.5260    18.1232     6.4258 C.ar    
  59 C59           12.0065    18.2921     5.1441 C.ar    
  60 C60           12.8153    17.3259     4.5719 C.ar    
  61 C61           13.1476    16.1844     5.2802 C.ar    
  62 C62           12.6784    16.0050     6.5648 C.ar    
  63 O63            8.9452    15.1682    10.5245 O.2     
  64 Cl64          13.5676    21.2113    10.0908 Cl      
  65 Cl65          11.4997    17.6935    13.6292 Cl      
  66 H66           -1.7748     0.1732    -2.1688 H       
  67 H67           -3.8123    -1.1680    -2.4768 H       
  68 H68           -2.9120    -3.3719     1.0744 H       
  69 H69           -0.8658    -2.0450     1.3869 H       
  70 H70            2.3626     5.1577     0.9813 H       
  71 H71            0.2548     3.9533     0.6964 H       
  72 H72            4.5633     1.5695     0.2229 H       
  73 H73           -1.9211     0.9208     2.0243 H       
  74 H74           -4.0992     2.0448     2.2267 H       
  75 H75           -4.7724     3.7397     0.5757 H       
  76 H76           -3.2737     4.3211    -1.2865 H       
  77 H77           -1.0860     3.2182    -1.5013 H       
  78 H78            4.1244     6.0165     0.2750 H       
  79 H79            4.1044     5.6400     2.0145 H       
  80 H80            6.5835     5.5903     2.0323 H       
  81 H81            6.6035     5.9668     0.2927 H       
  82 H82            5.4219     8.1002     0.7409 H       
  83 H83            5.4019     7.7237     2.4805 H       
  84 H84            7.8810     7.6740     2.4982 H       
  85 H85            7.9010     8.0505     0.7587 H       
  86 H86            8.4252     9.7858     3.8287 H       
  87 H87            8.4171    13.4125     3.3516 H       
  88 H88            6.9556    13.0997     4.3181 H       
  89 H89            8.1296    14.6881     4.9865 H       
  90 H90           10.1586    11.5149     7.0097 H       
  91 H91           10.9472    13.0988     8.7168 H       
  92 H92            8.9129    16.2819     6.6867 H       
  93 H93           12.6190    19.1772     8.3447 H       
  94 H94           12.7633    19.9887    12.5304 H       
  95 H95           10.8946    18.8779     6.8710 H       
  96 H96           11.7507    19.1804     4.5855 H       
  97 H97           13.1885    17.4631     3.5678 H       
  98 H98           13.7789    15.4342     4.8275 H       
  99 H99           12.9422    15.1158     7.1181 H       
 100 Na100         18.7789    26.2113    18.6292 Du      
@<TRIPOS>BOND
   1    1    2 2
   2    1    5 1
   3    1   17 1
   4    2    3 1
   5    2    6 1
   6    3    4 1
   7    3   25 2
   8    4   14 1
   9    5   14 ar
  10    5   13 ar
  11    6    7 ar
  12    6   11 ar
  13    7    8 ar
  14    7   66 1
  15    8    9 ar
  16    8   67 1
  17    9   10 ar
  18    9   23 1
  19   10   11 ar
  20   10   68 1
  21   11   69 1
  22   12   13 ar
  23   12   16 ar
  24   12   70 1
  25   13   71 1
  26   14   15 ar
  27   15   16 ar
  28   15   72 1
  29   16   29 1
  30   17   18 ar
  31   17   22 ar
  32   18   19 ar
  33   18   73 1
  34   19   20 ar
  35   19   74 1
  36   20   21 ar
  37   20   75 1
  38   21   22 ar
  39   21   76 1
  40   22   77 1
  41   23   24 1
  42   24   26 ar
  43   24   27 ar
  44   24   28 ar
  45   29   30 1
  46   30   31 1
  47   30   78 1
  48   30   79 1
  49   31   32 1
  50   31   80 1
  51   31   81 1
  52   32   33 1
  53   32   82 1
  54   32   83 1
  55   33   34 1
  56   33   84 1
  57   33   85 1
  58   34   36 1
  59   34   35 1
  60   35   38 2
  61   35   86 1
  62   36   37 2
  63   37   38 1
  64   38   39 1
  65   39   40 1
  66   39   87 1
  67   39   88 1
  68   40   41 1
  69   41   43 ar
  70   41   42 ar
  71   42   46 ar
  72   42   89 1
  73   43   44 ar
  74   43   90 1
  75   44   45 ar
  76   44   91 1
  77   45   46 ar
  78   45   47 1
  79   46   92 1
  80   47   48 1
  81   47   51 2
  82   48   49 1
  83   48   63 2
  84   49   54 1
  85   50   51 1
  86   50   54 ar
  87   50   53 ar
  88   51   57 1
  89   52   53 ar
  90   52   56 ar
  91   52   64 1
  92   53   93 1
  93   54   55 ar
  94   55   56 ar
  95   55   65 1
  96   56   94 1
  97   57   58 ar
  98   57   62 ar
  99   58   59 ar
 100   58   95 1
 101   59   60 ar
 102   59   96 1
 103   60   61 ar
 104   60   97 1
 105   61   62 ar
 106   61   98 1
 107   62   99 1

#	End of record

