#	Name: ASD01911211
#	Creating user name:	WinNT
#	Creation time:	15. 06. 2019 19:57

#	Modifying user name:	WinNT
#	Modification time:	15. 06. 2019 19:57

#	Program:	/corina/corina34_cracker 3.40 0067  02.08.2006

@<TRIPOS>MOLECULE
ASD01911211
  45   47    0    0    0
SMALL
NO_CHARGES


@<TRIPOS>ATOM
   1 C1            -0.6207     1.5083     0.6348 C.ar    
   2 N2            -0.4900     0.2073     0.4954 N.ar    
   3 C3             0.5356    -0.3234    -0.1594 C.ar    
   4 C4             1.5139     0.4920    -0.7234 C.ar    
   5 C5             1.4018     1.8674    -0.5921 C.ar    
   6 C6             0.3149     2.3792     0.0989 C.ar    
   7 C7             0.6408    -1.7951    -0.2908 C.2     
   8 N8            -0.3024    -2.5894     0.2532 N.am    
   9 C9            -0.2533    -3.9725     0.0512 C.ar    
  10 C10           -1.4243    -4.7190     0.0615 C.ar    
  11 C11           -1.3729    -6.0847    -0.1387 C.ar    
  12 C12           -0.1565    -6.7090    -0.3492 C.ar    
  13 C13            1.0121    -5.9677    -0.3595 C.ar    
  14 C14            0.9662    -4.6013    -0.1657 C.ar    
  15 C15           -2.7498    -4.0397     0.2913 C.3     
  16 N16           -3.2017    -3.4164    -0.9551 N.am    
  17 O17            1.5777    -2.2863    -0.8892 O.2     
  18 Br18          -0.0902    -8.5789    -0.6229 Br      
  19 C19           -3.9646    -4.1143    -1.8196 C.2     
  20 C20           -4.5005    -3.4567    -3.0290 C.ar    
  21 C21           -3.6964    -2.5870    -3.7680 C.ar    
  22 C22           -4.2004    -1.9756    -4.8965 C.ar    
  23 C23           -5.5033    -2.2222    -5.2985 C.ar    
  24 C24           -6.3086    -3.0862    -4.5680 C.ar    
  25 C25           -5.8116    -3.7075    -3.4402 C.ar    
  26 O26           -4.2117    -5.2849    -1.6041 O.2     
  27 C27           -2.8242    -2.0345    -1.2618 C.3     
  28 F28           -7.5783    -3.3225    -4.9643 F       
  29 F29           -5.9921    -1.6197    -6.4045 F       
  30 H30           -1.4711     1.9039     1.1703 H       
  31 H31            2.3482     0.0588    -1.2552 H       
  32 H32            2.1448     2.5253    -1.0183 H       
  33 H33            0.1982     3.4461     0.2187 H       
  34 H34           -1.0152    -2.2018     0.7847 H       
  35 H35           -2.2833    -6.6658    -0.1304 H       
  36 H36            1.9604    -6.4578    -0.5234 H       
  37 H37            1.8784    -4.0232    -0.1742 H       
  38 H38           -3.4843    -4.7767     0.6161 H       
  39 H39           -2.6378    -3.2752     1.0601 H       
  40 H40           -2.6808    -2.3930    -3.4559 H       
  41 H41           -3.5783    -1.3029    -5.4682 H       
  42 H42           -6.4377    -4.3797    -2.8722 H       
  43 H43           -1.9288    -2.0318    -1.8834 H       
  44 H44           -3.6388    -1.5454    -1.7960 H       
  45 H45           -2.6242    -1.4981    -0.3342 H       
@<TRIPOS>BOND
   1    1    2 ar
   2    1    6 ar
   3    1   30 1
   4    2    3 ar
   5    3    4 ar
   6    3    7 1
   7    4    5 ar
   8    4   31 1
   9    5    6 ar
  10    5   32 1
  11    6   33 1
  12    7    8 am
  13    7   17 2
  14    8    9 1
  15    8   34 1
  16    9   10 ar
  17    9   14 ar
  18   10   11 ar
  19   10   15 1
  20   11   12 ar
  21   11   35 1
  22   12   13 ar
  23   12   18 1
  24   13   14 ar
  25   13   36 1
  26   14   37 1
  27   15   16 1
  28   15   38 1
  29   15   39 1
  30   16   19 am
  31   16   27 1
  32   19   20 1
  33   19   26 2
  34   20   21 ar
  35   20   25 ar
  36   21   22 ar
  37   21   40 1
  38   22   23 ar
  39   22   41 1
  40   23   24 ar
  41   23   29 1
  42   24   25 ar
  43   24   28 1
  44   25   42 1
  45   27   43 1
  46   27   44 1
  47   27   45 1

#	End of record

