#	Name: ASD01914414
#	Creating user name:	WinNT
#	Creation time:	15. 06. 2019 20:03

#	Modifying user name:	WinNT
#	Modification time:	15. 06. 2019 20:03

#	Program:	/corina/corina34_cracker 3.40 0067  02.08.2006

@<TRIPOS>MOLECULE
ASD01914414
  56   60    0    0    0
SMALL
NO_CHARGES


@<TRIPOS>ATOM
   1 C1            -0.0167     1.3769     0.0096 C.ar    
   2 C2             0.0021    -0.0041     0.0020 C.ar    
   3 C3             1.2140    -0.6809    -0.0132 C.ar    
   4 C4             2.4051     0.0320    -0.0207 C.ar    
   5 C5             2.3825     1.4129    -0.0131 C.ar    
   6 C6             1.1726     2.0864     0.0021 C.ar    
   7 N7             1.2350    -2.0834    -0.0204 N.pl3   
   8 C8             0.5462    -2.9103     0.8266 C.2     
   9 C9             0.8555    -4.1832     0.4668 C.2     
  10 N10            1.7113    -4.1229    -0.5735 N.2     
  11 C11            1.9378    -2.8743    -0.8730 C.2     
  12 C12            0.3430    -5.4205     1.1056 C.ar    
  13 C13            0.7449    -6.6685     0.6329 C.ar    
  14 C14            0.2667    -7.8168     1.2288 C.ar    
  15 C15           -0.6143    -7.7305     2.2979 C.ar    
  16 C16           -1.0165    -6.4890     2.7710 C.ar    
  17 C17           -0.5369    -5.3370     2.1833 C.ar    
  18 C18            2.8392    -2.3876    -1.9783 C.3     
  19 O19            0.8593    -2.5094    -3.2569 O.2     
  20 C20            2.0426    -2.2433    -3.2493 C.2     
  21 N21            2.6450    -1.8185    -4.3776 N.am    
  22 F22            1.1524     3.4372     0.0095 F       
  23 O23           -1.0845    -8.8638     2.8825 O.3     
  24 C24            4.0835    -1.4956    -4.3914 C.3     
  25 C25            1.8858    -1.6708    -5.6285 C.3     
  26 C26            1.8698    -0.1920    -6.0353 C.3     
  27 C27            3.2611     0.3692    -5.8856 C.2     
  28 C28            4.2454    -0.2052    -5.1563 C.2     
  29 N29            3.7585     1.4901    -6.4250 N.2     
  30 C30            5.0009     1.6187    -6.0467 C.2     
  31 O31            5.3280     0.5772    -5.2556 O.3     
  32 C32            5.9229     2.7464    -6.4329 C.3     
  33 C33           -1.9879    -8.7020     3.9778 C.3     
  34 H34           -0.9594     1.9038     0.0169 H       
  35 H35           -0.9256    -0.5571     0.0082 H       
  36 H36            3.3489    -0.4929    -0.0321 H       
  37 H37            3.3090     1.9679    -0.0185 H       
  38 H38           -0.1145    -2.6088     1.6260 H       
  39 H39            1.4298    -6.7363    -0.1994 H       
  40 H40            0.5778    -8.7842     0.8629 H       
  41 H41           -1.7021    -6.4250     3.6030 H       
  42 H42           -0.8499    -4.3714     2.5520 H       
  43 H43            3.2625    -1.4215    -1.7031 H       
  44 H44            3.6441    -3.1060    -2.1336 H       
  45 H45            4.4452    -1.3698    -3.3709 H       
  46 H46            4.6379    -2.2926    -4.8869 H       
  47 H47            2.3596    -2.2597    -6.4139 H       
  48 H48            0.8637    -2.0182    -5.4775 H       
  49 H49            1.5495    -0.1022    -7.0733 H       
  50 H50            1.1833     0.3567    -5.3905 H       
  51 H51            5.8392     3.5506    -5.7019 H       
  52 H52            6.9504     2.3833    -6.4576 H       
  53 H53            5.6461     3.1208    -7.4184 H       
  54 H54           -1.4965    -8.1437     4.7746 H       
  55 H55           -2.8706    -8.1571     3.6434 H       
  56 H56           -2.2856    -9.6819     4.3510 H       
@<TRIPOS>BOND
   1    1    2 ar
   2    1    6 ar
   3    1   34 1
   4    2    3 ar
   5    2   35 1
   6    3    4 ar
   7    3    7 1
   8    4    5 ar
   9    4   36 1
  10    5    6 ar
  11    5   37 1
  12    6   22 1
  13    7    8 1
  14    7   11 1
  15    8    9 2
  16    8   38 1
  17    9   10 1
  18    9   12 1
  19   10   11 2
  20   11   18 1
  21   12   13 ar
  22   12   17 ar
  23   13   14 ar
  24   13   39 1
  25   14   15 ar
  26   14   40 1
  27   15   16 ar
  28   15   23 1
  29   16   17 ar
  30   16   41 1
  31   17   42 1
  32   18   20 1
  33   18   43 1
  34   18   44 1
  35   19   20 2
  36   20   21 am
  37   21   25 1
  38   21   24 1
  39   23   33 1
  40   24   28 1
  41   24   45 1
  42   24   46 1
  43   25   26 1
  44   25   47 1
  45   25   48 1
  46   26   27 1
  47   26   49 1
  48   26   50 1
  49   27   28 2
  50   27   29 1
  51   28   31 1
  52   29   30 2
  53   30   31 1
  54   30   32 1
  55   32   51 1
  56   32   52 1
  57   32   53 1
  58   33   54 1
  59   33   55 1
  60   33   56 1

#	End of record

