#	Name: ASD03092943
#	Creating user name:	WinNT
#	Creation time:	15. 06. 2019 20:33

#	Modifying user name:	WinNT
#	Modification time:	15. 06. 2019 20:33

#	Program:	/corina/corina34_cracker 3.40 0067  02.08.2006

@<TRIPOS>MOLECULE
ASD03092943
  51   54    0    0    0
SMALL
NO_CHARGES


@<TRIPOS>ATOM
   1 F1             0.0088    -0.0062     0.0356 F       
   2 C2            -0.0105     1.3446     0.0399 C.ar    
   3 C3            -1.2212     2.0182     0.0642 C.ar    
   4 C4            -1.2454     3.3976     0.0687 C.ar    
   5 C5            -0.0500     4.1135     0.0489 C.ar    
   6 C6             1.1653     3.4321     0.0246 C.ar    
   7 C7             1.1805     2.0526     0.0260 C.ar    
   8 C8            -0.0712     5.5973     0.0532 C.2     
   9 N9            -0.9541     6.3737    -0.5248 N.2     
  10 O10           -0.7018     7.5420    -0.3424 O.3     
  11 C11            0.4057     7.7040     0.3967 C.2     
  12 C12            1.0204     9.0125     0.8220 C.3     
  13 C13            1.3992     9.8249    -0.4184 C.3     
  14 C14            2.0551    11.1389     0.0174 C.3     
  15 N15            1.1500    11.8355     0.9416 N.am    
  16 C16            0.6524    11.1142     2.1210 C.3     
  17 C17            0.0122     9.8004     1.6616 C.3     
  18 C18            0.7835    13.1120     0.7123 C.2     
  19 O19            1.2749    13.7287    -0.2132 O.2     
  20 N20           -0.1277    13.7050     1.5089 N.am    
  21 C21           -0.4435    15.1244     1.3304 C.3     
  22 C22           -1.5192    15.2783     0.2508 C.3     
  23 C23           -1.8990    16.7561     0.1268 C.3     
  24 O24           -2.3522    17.2380     1.3935 O.3     
  25 C25           -1.3723    17.1630     2.4309 C.3     
  26 C26           -0.9713    15.7015     2.6475 C.3     
  27 C27            0.8603     6.4643     0.6914 C.2     
  28 Cl28           2.2572     6.0315     1.6268 Cl      
  29 H29           -2.1471     1.4625     0.0791 H       
  30 H30           -2.1895     3.9218     0.0872 H       
  31 H31            2.0940     3.9832     0.0088 H       
  32 H32            2.1221     1.5237     0.0116 H       
  33 H33            1.9139     8.8182     1.4153 H       
  34 H34            2.0993     9.2534    -1.0278 H       
  35 H35            0.5027    10.0410    -0.9995 H       
  36 H36            2.9987    10.9272     0.5202 H       
  37 H37            2.2368    11.7642    -0.8568 H       
  38 H38            1.4816    10.9004     2.7953 H       
  39 H39           -0.0915    11.7231     2.6348 H       
  40 H40           -0.8712    10.0167     1.0609 H       
  41 H41           -0.2748     9.2115     2.5327 H       
  42 H42           -0.5745    13.1920     2.2003 H       
  43 H43            0.4555    15.6630     1.0306 H       
  44 H44           -1.1317    14.9205    -0.7031 H       
  45 H45           -2.3992    14.6980     0.5282 H       
  46 H46           -1.0280    17.3299    -0.1900 H       
  47 H47           -2.6947    16.8664    -0.6100 H       
  48 H48           -0.4944    17.7421     2.1443 H       
  49 H49           -1.7886    17.5664     3.3540 H       
  50 H50           -1.8403    15.1298     2.9733 H       
  51 H51           -0.1920    15.6464     3.4076 H       
@<TRIPOS>BOND
   1    1    2 1
   2    2    7 ar
   3    2    3 ar
   4    3    4 ar
   5    3   29 1
   6    4    5 ar
   7    4   30 1
   8    5    6 ar
   9    5    8 1
  10    6    7 ar
  11    6   31 1
  12    7   32 1
  13    8   27 1
  14    8    9 2
  15    9   10 1
  16   10   11 1
  17   11   12 1
  18   11   27 2
  19   12   17 1
  20   12   13 1
  21   12   33 1
  22   13   14 1
  23   13   34 1
  24   13   35 1
  25   14   15 1
  26   14   36 1
  27   14   37 1
  28   15   16 1
  29   15   18 am
  30   16   17 1
  31   16   38 1
  32   16   39 1
  33   17   40 1
  34   17   41 1
  35   18   19 2
  36   18   20 am
  37   20   21 1
  38   20   42 1
  39   21   26 1
  40   21   22 1
  41   21   43 1
  42   22   23 1
  43   22   44 1
  44   22   45 1
  45   23   24 1
  46   23   46 1
  47   23   47 1
  48   24   25 1
  49   25   26 1
  50   25   48 1
  51   25   49 1
  52   26   50 1
  53   26   51 1
  54   27   28 1

#	End of record

