#	Name: ASD01180259
#	Creating user name:	WinNT
#	Creation time:	15. 06. 2019 19:07

#	Modifying user name:	WinNT
#	Modification time:	15. 06. 2019 19:07

#	Program:	/corina/corina34_cracker 3.40 0067  02.08.2006

@<TRIPOS>MOLECULE
ASD01180259
  63   65    0    0    0
SMALL
NO_CHARGES


@<TRIPOS>ATOM
   1 C1             1.3603    -4.7894    -9.4604 C.2     
   2 C2             1.1372    -5.4807    -8.1400 C.3     
   3 C3             2.4128    -5.3985    -7.2993 C.3     
   4 O4             2.4299    -4.2829    -9.7039 O.2     
   5 O5             0.3727    -4.7411   -10.3680 O.3     
   6 C6             3.1894    -6.1239    -5.1066 C.2     
   7 O7             4.2655    -5.6143    -5.3516 O.2     
   8 N8             2.1959    -6.0706    -6.0157 N.am    
   9 C9             2.9705    -6.8020    -3.8114 C.ar    
  10 C10            3.9984    -6.8573    -2.8707 C.ar    
  11 N11            1.7892    -7.3559    -3.5406 N.ar    
  12 N12            3.8024    -7.4630    -1.7142 N.ar    
  13 C13            2.6267    -8.0195    -1.4472 C.ar    
  14 C14            1.5944    -7.9591    -2.3887 C.ar    
  15 N15            2.4211    -8.6546    -0.2348 N.pl3   
  16 C16            1.0862    -9.1437     0.1189 C.3     
  17 C17            0.9470    -9.1902     1.6418 C.3     
  18 C18            1.0266    -7.7698     2.2049 C.3     
  19 C19           -0.1854    -6.9649     1.7314 C.3     
  20 C20            0.5360   -13.0695    -1.4826 C.ar    
  21 C21           -0.5093   -12.1487    -1.5141 C.ar    
  22 C22           -0.3260   -10.8826    -0.9960 C.ar    
  23 C23            0.8923   -10.5274    -0.4458 C.ar    
  24 C24            1.9335   -11.4374    -0.4123 C.ar    
  25 C25            1.7613   -12.7062    -0.9276 C.ar    
  26 C26            0.3430   -14.4342    -2.0327 C.ar    
  27 C27            1.3882   -15.3550    -2.0012 C.ar    
  28 C28            1.2032   -16.6229    -2.5142 C.ar    
  29 C29           -0.0169   -16.9799    -3.0593 C.ar    
  30 C30           -1.0578   -16.0696    -3.0936 C.ar    
  31 C31           -0.8859   -14.8012    -2.5773 C.ar    
  32 C32           -0.2128   -18.3656    -3.6184 C.3     
  33 F33           -0.6789   -19.2143    -2.6086 F       
  34 F34           -1.1473   -18.3210    -4.6584 F       
  35 F35            1.0062   -18.8478    -4.1071 F       
  36 C36            1.0353    -7.8270     3.7338 C.3     
  37 H37            0.3197    -4.9936    -7.6085 H       
  38 H38            0.8845    -6.5264    -8.3156 H       
  39 H39            3.2303    -5.8856    -7.8308 H       
  40 H40            2.6655    -4.3528    -7.1237 H       
  41 H41            0.5630    -4.2868   -11.2002 H       
  42 H42            1.3372    -6.4772    -5.8202 H       
  43 H43            4.9546    -6.4049    -3.0883 H       
  44 H44            0.6368    -8.4079    -2.1695 H       
  45 H45            3.1609    -8.7759     0.3808 H       
  46 H46            0.3324    -8.4737    -0.2946 H       
  47 H47           -0.0138    -9.6323     1.9055 H       
  48 H48            1.7520    -9.7933     2.0620 H       
  49 H49            1.9406    -7.2906     1.8540 H       
  50 H50           -0.1371    -6.8377     0.6500 H       
  51 H51           -1.0999    -7.4967     1.9943 H       
  52 H52           -0.1826    -5.9870     2.2128 H       
  53 H53           -1.4609   -12.4250    -1.9435 H       
  54 H54           -1.1355   -10.1681    -1.0199 H       
  55 H55            2.8828   -11.1548     0.0182 H       
  56 H56            2.5747   -13.4162    -0.9003 H       
  57 H57            2.3415   -15.0771    -1.5764 H       
  58 H58            2.0127   -17.3374    -2.4903 H       
  59 H59           -2.0083   -16.3535    -3.5206 H       
  60 H60           -1.7009   -14.0928    -2.5999 H       
  61 H61            1.8987    -8.4004     4.0710 H       
  62 H62            1.0920    -6.8151     4.1349 H       
  63 H63            0.1213    -8.3062     4.0846 H       
@<TRIPOS>BOND
   1    1    2 1
   2    1    4 2
   3    1    5 1
   4    2    3 1
   5    2   37 1
   6    2   38 1
   7    3    8 1
   8    3   39 1
   9    3   40 1
  10    5   41 1
  11    6    7 2
  12    6    8 am
  13    6    9 1
  14    8   42 1
  15    9   10 ar
  16    9   11 ar
  17   10   12 ar
  18   10   43 1
  19   11   14 ar
  20   12   13 ar
  21   13   14 ar
  22   13   15 1
  23   14   44 1
  24   15   16 1
  25   15   45 1
  26   16   17 1
  27   16   23 1
  28   16   46 1
  29   17   18 1
  30   17   47 1
  31   17   48 1
  32   18   19 1
  33   18   36 1
  34   18   49 1
  35   19   50 1
  36   19   51 1
  37   19   52 1
  38   20   21 ar
  39   20   25 ar
  40   20   26 1
  41   21   22 ar
  42   21   53 1
  43   22   23 ar
  44   22   54 1
  45   23   24 ar
  46   24   25 ar
  47   24   55 1
  48   25   56 1
  49   26   27 ar
  50   26   31 ar
  51   27   28 ar
  52   27   57 1
  53   28   29 ar
  54   28   58 1
  55   29   30 ar
  56   29   32 1
  57   30   31 ar
  58   30   59 1
  59   31   60 1
  60   32   33 1
  61   32   34 1
  62   32   35 1
  63   36   61 1
  64   36   62 1
  65   36   63 1

#	End of record

