#	Name: ASD03082194
#	Creating user name:	WinNT
#	Creation time:	15. 06. 2019 20:27

#	Modifying user name:	WinNT
#	Modification time:	15. 06. 2019 20:27

#	Program:	/corina/corina34_cracker 3.40 0067  02.08.2006

@<TRIPOS>MOLECULE
ASD03082194
  42   45    0    0    0
SMALL
NO_CHARGES


@<TRIPOS>ATOM
   1 C1             1.2184    -0.1397     0.7519 C.ar    
   2 C2             0.0419     0.3553     0.2040 C.ar    
   3 C3            -0.0213     1.6771    -0.2195 C.ar    
   4 C4             1.0848     2.4940    -0.0945 C.ar    
   5 C5             2.2548     1.9979     0.4514 C.ar    
   6 C6             2.3212     0.6830     0.8739 C.ar    
   7 N7            -1.0755    -0.4744     0.0787 N.pl3   
   8 H8            -0.9589    -1.4262    -0.0674 H       
   9 C9            -2.3599     0.0667     0.1637 C.2     
  10 N10           -3.4968    -0.6027    -0.0343 N.2     
  11 N11           -2.6432     1.3148     0.4570 N.2     
  12 N12           -4.0423     1.4331     0.4356 N.pl3   
  13 C13           -4.5237     0.2086     0.1244 C.2     
  14 C14           -4.8251     2.6424     0.7022 C.3     
  15 C15           -5.9504    -0.1560    -0.0145 C.ar    
  16 C16           -6.3549    -1.4954     0.1157 C.ar    
  17 N17           -7.6101    -1.8460    -0.0020 N.ar    
  18 C18           -8.5701    -0.9488    -0.2517 C.ar    
  19 C19           -8.2426     0.4232    -0.3964 C.ar    
  20 C20           -6.9018     0.8238    -0.2689 C.ar    
  21 O21           -5.0135     3.3660    -0.5155 O.3     
  22 C22           -9.9128    -1.3457    -0.3751 C.ar    
  23 C23          -10.8728    -0.4151    -0.6297 C.ar    
  24 C24          -10.5489     0.9328    -0.7715 C.ar    
  25 C25           -9.2600     1.3564    -0.6594 C.ar    
  26 C26            1.0174     3.9277    -0.5540 C.3     
  27 F27            0.5908     4.7370     0.5044 F       
  28 F28            2.2850     4.3421    -0.9765 F       
  29 F29            0.1136     4.0348    -1.6166 F       
  30 H30            1.2696    -1.1654     1.0861 H       
  31 H31           -0.9345     2.0650    -0.6462 H       
  32 H32            3.1186     2.6390     0.5476 H       
  33 H33            3.2362     0.2989     1.3000 H       
  34 H34           -5.7955     2.3637     1.1131 H       
  35 H35           -4.2935     3.2687     1.4186 H       
  36 H36           -5.6123    -2.2533     0.3172 H       
  37 H37           -6.6185     1.8607    -0.3734 H       
  38 H38           -5.5249     4.1804    -0.4140 H       
  39 H39          -10.1819    -2.3862    -0.2685 H       
  40 H40          -11.9027    -0.7265    -0.7238 H       
  41 H41          -11.3302     1.6505    -0.9737 H       
  42 H42           -9.0208     2.4036    -0.7712 H       
@<TRIPOS>BOND
   1    1    2 ar
   2    1    6 ar
   3    1   30 1
   4    2    3 ar
   5    2    7 1
   6    3    4 ar
   7    3   31 1
   8    4    5 ar
   9    4   26 1
  10    5    6 ar
  11    5   32 1
  12    6   33 1
  13    7    8 1
  14    7    9 1
  15    9   10 1
  16    9   11 2
  17   10   13 2
  18   11   12 1
  19   12   13 1
  20   12   14 1
  21   13   15 1
  22   14   21 1
  23   14   34 1
  24   14   35 1
  25   15   16 ar
  26   15   20 ar
  27   16   17 ar
  28   16   36 1
  29   17   18 ar
  30   18   19 ar
  31   18   22 ar
  32   19   20 ar
  33   19   25 ar
  34   20   37 1
  35   21   38 1
  36   22   23 ar
  37   22   39 1
  38   23   24 ar
  39   23   40 1
  40   24   25 ar
  41   24   41 1
  42   25   42 1
  43   26   27 1
  44   26   28 1
  45   26   29 1

#	End of record

