#	Name: ASD00069205
#	Creating user name:	WinNT
#	Creation time:	15. 06. 2019 18:29

#	Modifying user name:	WinNT
#	Modification time:	15. 06. 2019 18:29

#	Program:	/corina/corina34_cracker 3.40 0067  02.08.2006

@<TRIPOS>MOLECULE
ASD00069205
  69   73    0    0    0
SMALL
NO_CHARGES


@<TRIPOS>ATOM
   1 C1            -0.0365     1.2474     0.1314 C.2     
   2 N2            -0.0366    -0.0662     0.1201 N.2     
   3 C3             1.2291    -0.5040     0.1468 C.2     
   4 C4             2.0558     0.5974     0.1761 C.2     
   5 N5             1.2577     1.6875     0.1662 N.pl3   
   6 C6            -1.2349     2.1063     0.1044 C.2     
   7 O7            -1.1160     3.3166     0.1177 O.2     
   8 N8            -2.4619     1.5500     0.0650 N.am    
   9 C9            -3.6009     2.3592     0.1598 C.ar    
  10 C10           -4.7628     2.0158    -0.5323 C.ar    
  11 C11           -5.8870     2.8216    -0.4341 C.ar    
  12 C12           -5.8544     3.9614     0.3479 C.ar    
  13 C13           -4.7031     4.3016     1.0336 C.ar    
  14 C14           -3.5792     3.5011     0.9461 C.ar    
  15 N15           -4.7933     0.8623    -1.3232 N.3     
  16 C16           -3.8879     0.9886    -2.4738 C.3     
  17 C17           -3.8901    -0.3201    -3.2674 C.3     
  18 N18           -5.2594    -0.6200    -3.7087 N.3     
  19 C19           -6.1648    -0.7463    -2.5581 C.3     
  20 C20           -6.1625     0.5624    -1.7645 C.3     
  21 C21            3.3537    -3.4956     0.1745 C.ar    
  22 N22            2.9593    -2.2320     0.1747 N.ar    
  23 C23            1.6628    -1.9216     0.1458 C.ar    
  24 C24            0.7214    -2.9486     0.1152 C.ar    
  25 C25            1.1774    -4.2652     0.1160 C.ar    
  26 N26            2.4870    -4.4969     0.1459 N.ar    
  27 N27            4.7084    -3.7781     0.1992 N.pl3   
  28 C28            5.6841    -2.6856     0.2251 C.3     
  29 N29            0.2783    -5.3197     0.0866 N.3     
  30 C30            0.9801    -6.6102     0.0935 C.3     
  31 C31           -0.0414    -7.7425     0.2432 C.3     
  32 N32           -1.0605    -7.5943    -0.8069 N.am    
  33 C33           -1.7114    -6.2850    -0.9651 C.3     
  34 C34           -0.6241    -5.2100    -1.0673 C.3     
  35 C35           -1.3894    -8.6310    -1.6029 C.2     
  36 O36           -0.8427    -9.7039    -1.4582 O.2     
  37 C37           -2.4364    -8.4570    -2.6728 C.3     
  38 H38            3.1355     0.5909     0.2020 H       
  39 H39            1.5492     2.6125     0.1811 H       
  40 H40           -2.5560     0.5892    -0.0289 H       
  41 H41           -6.7880     2.5590    -0.9686 H       
  42 H42           -6.7308     4.5881     0.4230 H       
  43 H43           -4.6829     5.1932     1.6427 H       
  44 H44           -2.6831     3.7673     1.4870 H       
  45 H45           -4.2257     1.8031    -3.1147 H       
  46 H46           -2.8781     1.1981    -2.1208 H       
  47 H47           -3.2415    -0.2188    -4.1375 H       
  48 H48           -3.5265    -1.1297    -2.6346 H       
  49 H49           -5.5921     0.0793    -4.3556 H       
  50 H50           -7.1745    -0.9558    -2.9112 H       
  51 H51           -5.8270    -1.5607    -1.9173 H       
  52 H52           -6.8111     0.4612    -0.8944 H       
  53 H53           -6.5262     1.3720    -2.3973 H       
  54 H54           -0.3359    -2.7294     0.0917 H       
  55 H55            5.0118    -4.6994     0.1993 H       
  56 H56            5.5256    -2.0779     1.1159 H       
  57 H57            6.6924    -3.0993     0.2421 H       
  58 H58            5.5603    -2.0668    -0.6636 H       
  59 H59            1.5247    -6.7330    -0.8426 H       
  60 H60            1.6801    -6.6391     0.9285 H       
  61 H61            0.4595    -8.7044     0.1342 H       
  62 H62           -0.5143    -7.6819     1.2235 H       
  63 H63           -2.3145    -6.2832    -1.8731 H       
  64 H64           -2.3448    -6.0842    -0.1010 H       
  65 H65           -1.0875    -4.2234    -1.0741 H       
  66 H66           -0.0572    -5.3524    -1.9873 H       
  67 H67           -1.9599    -8.1338    -3.5983 H       
  68 H68           -2.9470    -9.4056    -2.8390 H       
  69 H69           -3.1595    -7.7060    -2.3547 H       
@<TRIPOS>BOND
   1    1    2 2
   2    1    5 1
   3    1    6 1
   4    2    3 1
   5    3    4 2
   6    3   23 1
   7    4    5 1
   8    4   38 1
   9    5   39 1
  10    6    7 2
  11    6    8 am
  12    8    9 1
  13    8   40 1
  14    9   10 ar
  15    9   14 ar
  16   10   11 ar
  17   10   15 1
  18   11   12 ar
  19   11   41 1
  20   12   13 ar
  21   12   42 1
  22   13   14 ar
  23   13   43 1
  24   14   44 1
  25   15   16 1
  26   15   20 1
  27   16   17 1
  28   16   45 1
  29   16   46 1
  30   17   18 1
  31   17   47 1
  32   17   48 1
  33   18   19 1
  34   18   49 1
  35   19   20 1
  36   19   50 1
  37   19   51 1
  38   20   52 1
  39   20   53 1
  40   21   22 ar
  41   21   26 ar
  42   21   27 1
  43   22   23 ar
  44   23   24 ar
  45   24   25 ar
  46   24   54 1
  47   25   26 ar
  48   25   29 1
  49   27   28 1
  50   27   55 1
  51   28   56 1
  52   28   57 1
  53   28   58 1
  54   29   30 1
  55   29   34 1
  56   30   31 1
  57   30   59 1
  58   30   60 1
  59   31   32 1
  60   31   61 1
  61   31   62 1
  62   32   33 1
  63   32   35 am
  64   33   34 1
  65   33   63 1
  66   33   64 1
  67   34   65 1
  68   34   66 1
  69   35   36 2
  70   35   37 1
  71   37   67 1
  72   37   68 1
  73   37   69 1

#	End of record

