#	Name: ASD01100081
#	Creating user name:	WinNT
#	Creation time:	15. 06. 2019 18:58

#	Modifying user name:	WinNT
#	Modification time:	15. 06. 2019 18:58

#	Program:	/corina/corina34_cracker 3.40 0067  02.08.2006

@<TRIPOS>MOLECULE
ASD01100081
  38   40    0    0    0
SMALL
NO_CHARGES


@<TRIPOS>ATOM
   1 C1             0.2597     0.9672    -1.1144 C.ar    
   2 C2            -0.0559     0.0820    -0.0991 C.ar    
   3 C3             0.8340    -0.1235     0.9402 C.ar    
   4 C4             2.0376     0.5556     0.9635 C.ar    
   5 C5             2.3523     1.4400    -0.0513 C.ar    
   6 C6             1.4636     1.6457    -1.0900 C.ar    
   7 C7             3.6646     2.1805    -0.0251 C.3     
   8 Cl8           -1.5681    -0.7701    -0.1287 Cl      
   9 C9             4.5098     1.7463    -1.1947 C.2     
  10 N10            4.9812     0.4851    -1.2542 N.am    
  11 O11            4.7659     2.5319    -2.0826 O.2     
  12 C12            5.6654     0.0514    -2.3838 C.2     
  13 N13            6.1580    -1.1370    -2.5428 N.2     
  14 C14            6.7786    -1.3791    -3.6823 C.2     
  15 C15            6.8119    -0.3460    -4.5263 C.2     
  16 S16            5.9732     1.0055    -3.7687 S.3     
  17 C17            3.4030     3.6852    -0.1155 C.3     
  18 C18            4.7353     4.4370    -0.0888 C.3     
  19 C19            5.4710     4.1247     1.2158 C.3     
  20 C20            5.7326     2.6200     1.3063 C.3     
  21 C21            4.4003     1.8682     1.2796 C.3     
  22 H22           -0.4327     1.1247    -1.9282 H       
  23 H23            0.5881    -0.8141     1.7332 H       
  24 H24            2.7322     0.3955     1.7749 H       
  25 H25            1.7100     2.3368    -1.8825 H       
  26 H26            4.8431    -0.1200    -0.5088 H       
  27 H27            7.2234    -2.3358    -3.9129 H       
  28 H28            7.2701    -0.3404    -5.5042 H       
  29 H29            2.8788     3.9077    -1.0449 H       
  30 H30            2.7916     3.9992     0.7305 H       
  31 H31            5.3467     4.1230    -0.9348 H       
  32 H32            4.5489     5.5090    -0.1533 H       
  33 H33            6.4202     4.6603     1.2348 H       
  34 H34            4.8597     4.4387     2.0618 H       
  35 H35            6.3440     2.3060     0.4602 H       
  36 H36            6.2568     2.3976     2.2357 H       
  37 H37            3.7890     2.1822     2.1256 H       
  38 H38            4.5867     0.7962     1.3440 H       
@<TRIPOS>BOND
   1    1    2 ar
   2    1    6 ar
   3    1   22 1
   4    2    3 ar
   5    2    8 1
   6    3    4 ar
   7    3   23 1
   8    4    5 ar
   9    4   24 1
  10    5    6 ar
  11    5    7 1
  12    6   25 1
  13    7    9 1
  14    7   17 1
  15    7   21 1
  16    9   10 am
  17    9   11 2
  18   10   12 1
  19   10   26 1
  20   12   13 2
  21   12   16 1
  22   13   14 1
  23   14   15 2
  24   14   27 1
  25   15   16 1
  26   15   28 1
  27   17   18 1
  28   17   29 1
  29   17   30 1
  30   18   19 1
  31   18   31 1
  32   18   32 1
  33   19   20 1
  34   19   33 1
  35   19   34 1
  36   20   21 1
  37   20   35 1
  38   20   36 1
  39   21   37 1
  40   21   38 1

#	End of record

