#	Name: ASD01917122
#	Creating user name:	WinNT
#	Creation time:	15. 06. 2019 20:08

#	Modifying user name:	WinNT
#	Modification time:	15. 06. 2019 20:08

#	Program:	/corina/corina34_cracker 3.40 0067  02.08.2006

@<TRIPOS>MOLECULE
ASD01917122
  38   40    0    0    0
SMALL
NO_CHARGES


@<TRIPOS>ATOM
   1 C1            -0.0425     1.4708     0.1518 C.ar    
   2 C2            -0.0085    -0.0060     0.0635 C.2     
   3 N3             1.0564    -0.7654     0.2106 N.2     
   4 C4             0.7170    -2.0511     0.0659 C.2     
   5 N5            -0.5740    -2.1275    -0.1763 N.2     
   6 N6            -1.0679    -0.8129    -0.1769 N.pl3   
   7 C7            -2.4543    -0.3967    -0.4029 C.3     
   8 C8            -3.1969    -0.3904     0.9084 C.2     
   9 O9            -4.4919    -0.0390     0.9446 O.3     
  10 O10           -2.6267    -0.7016     1.9272 O.2     
  11 C11            1.6460    -3.2041     0.1621 C.ar    
  12 C12           -1.2475     2.1304     0.3944 C.ar    
  13 C13           -1.2726     3.5075     0.4761 C.ar    
  14 C14           -0.1060     4.2341     0.3180 C.ar    
  15 C15            1.0921     3.5858     0.0767 C.ar    
  16 C16            1.1313     2.2088    -0.0015 C.ar    
  17 C17            2.9982    -2.9914     0.4240 C.ar    
  18 C18            1.1670    -4.5024    -0.0036 C.ar    
  19 C19            2.0326    -5.5721     0.0868 C.ar    
  20 C20            3.3800    -5.3568     0.3430 C.ar    
  21 C21            3.8591    -4.0650     0.5133 C.ar    
  22 O22            4.2303    -6.4127     0.4325 O.3     
  23 C23            5.6034    -6.1193     0.6981 C.3     
  24 F24            6.1136    -5.3111    -0.3236 F       
  25 F25            5.7086    -5.4473     1.9206 F       
  26 H26           -2.4675     0.6048    -0.8328 H       
  27 H27           -2.9354    -1.0932    -1.0896 H       
  28 H28           -4.9258    -0.0501     1.8087 H       
  29 H29           -2.1590     1.5643     0.5177 H       
  30 H30           -2.2050     4.0194     0.6636 H       
  31 H31           -0.1307     5.3118     0.3828 H       
  32 H32            1.9995     4.1586    -0.0462 H       
  33 H33            2.0672     1.7039    -0.1895 H       
  34 H34            3.3715    -1.9867     0.5566 H       
  35 H35            0.1188    -4.6705    -0.2022 H       
  36 H36            1.6619    -6.5784    -0.0415 H       
  37 H37            4.9078    -3.9005     0.7122 H       
  38 H38            6.1712    -7.0485     0.7442 H       
@<TRIPOS>BOND
   1    1    2 1
   2    1   12 ar
   3    1   16 ar
   4    2    3 2
   5    2    6 1
   6    3    4 1
   7    4    5 2
   8    4   11 1
   9    5    6 1
  10    6    7 1
  11    7    8 1
  12    7   26 1
  13    7   27 1
  14    8    9 1
  15    8   10 2
  16    9   28 1
  17   11   17 ar
  18   11   18 ar
  19   12   13 ar
  20   12   29 1
  21   13   14 ar
  22   13   30 1
  23   14   15 ar
  24   14   31 1
  25   15   16 ar
  26   15   32 1
  27   16   33 1
  28   17   21 ar
  29   17   34 1
  30   18   19 ar
  31   18   35 1
  32   19   20 ar
  33   19   36 1
  34   20   21 ar
  35   20   22 1
  36   21   37 1
  37   22   23 1
  38   23   24 1
  39   23   25 1
  40   23   38 1

#	End of record

