#	Name: ASD07770001
#	Creating user name:	WinNT
#	Creation time:	15. 06. 2019 21:11

#	Modifying user name:	WinNT
#	Modification time:	15. 06. 2019 21:11

#	Program:	/corina/corina34_cracker 3.40 0067  02.08.2006

@<TRIPOS>MOLECULE
ASD07770001
  37   36    0    0    0
SMALL
NO_CHARGES


@<TRIPOS>ATOM
   1 C1            -0.0184     1.5028     0.0103 C.2     
   2 C2             0.0021    -0.0041     0.0020 C.3     
   3 O3             1.1348     2.1897     0.0030 O.3     
   4 O4            -1.0728     2.0926     0.0185 O.2     
   5 C5             0.2459    -0.5030    -1.4237 C.3     
   6 N6            -1.2880    -0.5139     0.4853 N.3     
   7 C7             0.3909    -2.0261    -1.4132 C.3     
   8 C8             0.6310    -2.5175    -2.8174 C.2     
   9 N9             0.7899    -3.8350    -3.0524 N.am    
  10 O10            0.6812    -1.7273    -3.7361 O.2     
  11 C11            1.0234    -4.3128    -4.4175 C.3     
  12 C12            2.5163    -4.2246    -4.7404 C.3     
  13 S13            3.0643    -2.5010    -4.6009 S.3     
  14 C14            0.5681    -5.7447    -4.5333 C.2     
  15 O15            0.0952    -6.3104    -3.5704 O.2     
  16 N16            0.6865    -6.3965    -5.7070 N.am    
  17 C17            0.2439    -7.7885    -5.8196 C.3     
  18 C18            0.4840    -8.2799    -7.2239 C.2     
  19 O19            0.9745    -7.5430    -8.0462 O.2     
  20 O20            0.1530    -9.5363    -7.5611 O.3     
  21 H21            0.8004    -0.3602     0.6531 H       
  22 H22            1.0711     3.1545     0.0088 H       
  23 H23           -0.5966    -0.2225    -2.0558 H       
  24 H24            1.1588    -0.0538    -1.8147 H       
  25 H25           -2.0449    -0.1974    -0.1021 H       
  26 H26           -1.2775    -1.5208     0.5503 H       
  27 H27            1.2334    -2.3065    -0.7811 H       
  28 H28           -0.5221    -2.4753    -1.0222 H       
  29 H29            0.7498    -4.4670    -2.3176 H       
  30 H30            0.4628    -3.6953    -5.1193 H       
  31 H31            3.0769    -4.8420    -4.0385 H       
  32 H32            2.6900    -4.5800    -5.7560 H       
  33 H33            4.3721    -2.5736    -4.9066 H       
  34 H34            1.0647    -5.9441    -6.4771 H       
  35 H35            0.8045    -8.4060    -5.1178 H       
  36 H36           -0.8197    -7.8514    -5.5896 H       
  37 H37            0.3259    -9.8060    -8.4735 H       
@<TRIPOS>BOND
   1    1    2 1
   2    1    3 1
   3    1    4 2
   4    2    5 1
   5    2    6 1
   6    2   21 1
   7    3   22 1
   8    5    7 1
   9    5   23 1
  10    5   24 1
  11    6   25 1
  12    6   26 1
  13    7    8 1
  14    7   27 1
  15    7   28 1
  16    8    9 am
  17    8   10 2
  18    9   11 1
  19    9   29 1
  20   11   12 1
  21   11   14 1
  22   11   30 1
  23   12   13 1
  24   12   31 1
  25   12   32 1
  26   13   33 1
  27   14   15 2
  28   14   16 am
  29   16   17 1
  30   16   34 1
  31   17   18 1
  32   17   35 1
  33   17   36 1
  34   18   19 2
  35   18   20 1
  36   20   37 1

#	End of record

