#	Name: ASD02030634
#	Creating user name:	WinNT
#	Creation time:	15. 06. 2019 20:15

#	Modifying user name:	WinNT
#	Modification time:	15. 06. 2019 20:15

#	Program:	/corina/corina34_cracker 3.40 0067  02.08.2006

@<TRIPOS>MOLECULE
ASD02030634
  63   66    0    0    0
SMALL
NO_CHARGES


@<TRIPOS>ATOM
   1 C1             0.1632     1.1532    -0.0920 C.ar    
   2 C2             0.0212    -0.2180    -0.0963 C.ar    
   3 C3             1.1479    -1.0249    -0.1662 C.ar    
   4 C4             2.4036    -0.4458    -0.2252 C.ar    
   5 C5             2.5448     0.9359    -0.2143 C.ar    
   6 C6             1.4234     1.7333    -0.1568 C.ar    
   7 C7             1.5034     3.2393    -0.1752 C.3     
   8 C8             3.9431     1.4942    -0.2521 C.3     
   9 C9             3.9359     2.9477    -0.7228 C.3     
  10 N10            2.8926     3.6630     0.0289 N.am    
  11 C11            1.0057     3.7591    -1.5254 C.3     
  12 O12            1.7452     3.1359    -2.5775 O.3     
  13 C13            1.4250     3.4900    -3.8508 C.ar    
  14 C14            3.2020     4.6678     0.8722 C.2     
  15 O15            4.3658     4.9502     1.0801 O.2     
  16 C16            2.1257     5.4266     1.5443 C.ar    
  17 C17            0.7728     4.2105    -6.4429 C.ar    
  18 C18            0.0986     4.7818    -5.3739 C.ar    
  19 C19            0.4239     4.4221    -4.0805 C.ar    
  20 C20            2.1033     2.9233    -4.9196 C.ar    
  21 C21            1.7781     3.2830    -6.2130 C.ar    
  22 C22            2.3065     5.8951     2.8464 C.ar    
  23 C23            0.9265     5.6825     0.8771 C.ar    
  24 C24           -0.0734     6.3915     1.5098 C.ar    
  25 C25            0.1102     6.8487     2.8029 C.ar    
  26 C26            1.2982     6.6030     3.4678 C.ar    
  27 O27            0.4526     4.5646    -7.7162 O.3     
  28 C28            1.1875     3.9365    -8.7685 C.3     
  29 O29            1.0191    -2.3777    -0.1763 O.3     
  30 C30           -0.2949    -2.9057     0.0152 C.3     
  31 C31           -0.9456    -3.1604    -1.3459 C.3     
  32 C32           -0.2080    -4.2204     0.7930 C.3     
  33 N33            1.4879     7.1002     4.8489 N.pl3   
  34 O34            2.5332     6.8844     5.4357 O.2     
  35 O35            0.5988     7.7253     5.3987 O.2     
  36 H36           -0.7135     1.7820    -0.0423 H       
  37 H37           -0.9620    -0.6620    -0.0451 H       
  38 H38            3.2808    -1.0734    -0.2798 H       
  39 H39            0.8796     3.6454     0.6212 H       
  40 H40            4.3766     1.4430     0.7467 H       
  41 H41            4.5484     0.8990    -0.9357 H       
  42 H42            4.9075     3.4025    -0.5296 H       
  43 H43            3.7144     2.9887    -1.7893 H       
  44 H44           -0.0529     3.5248    -1.6372 H       
  45 H45            1.1459     4.8390    -1.5731 H       
  46 H46           -0.6842     5.5040    -5.5529 H       
  47 H47           -0.1016     4.8664    -3.2481 H       
  48 H48            2.8861     2.2011    -4.7406 H       
  49 H49            2.3030     2.8381    -7.0455 H       
  50 H50            3.2333     5.7037     3.3667 H       
  51 H51            0.7821     5.3266    -0.1322 H       
  52 H52           -1.0015     6.5905     0.9946 H       
  53 H53           -0.6758     7.4033     3.2937 H       
  54 H54            2.2474     4.1657    -8.6585 H       
  55 H55            1.0421     2.8573    -8.7193 H       
  56 H56            0.8335     4.3073    -9.7304 H       
  57 H57           -0.8957    -2.1903     0.5769 H       
  58 H58           -0.3448    -3.8758    -1.9076 H       
  59 H59           -1.9479    -3.5631    -1.1999 H       
  60 H60           -1.0075    -2.2238    -1.9000 H       
  61 H61            0.2555    -4.0389     1.7627 H       
  62 H62           -1.2103    -4.6231     0.9391 H       
  63 H63            0.3927    -4.9357     0.2313 H       
@<TRIPOS>BOND
   1    1    2 ar
   2    1    6 ar
   3    1   36 1
   4    2    3 ar
   5    2   37 1
   6    3    4 ar
   7    3   29 1
   8    4    5 ar
   9    4   38 1
  10    5    6 ar
  11    5    8 1
  12    6    7 1
  13    7   10 1
  14    7   11 1
  15    7   39 1
  16    8    9 1
  17    8   40 1
  18    8   41 1
  19    9   10 1
  20    9   42 1
  21    9   43 1
  22   10   14 am
  23   11   12 1
  24   11   44 1
  25   11   45 1
  26   12   13 1
  27   13   20 ar
  28   13   19 ar
  29   14   15 2
  30   14   16 1
  31   16   23 ar
  32   16   22 ar
  33   17   18 ar
  34   17   21 ar
  35   17   27 1
  36   18   19 ar
  37   18   46 1
  38   19   47 1
  39   20   21 ar
  40   20   48 1
  41   21   49 1
  42   22   26 ar
  43   22   50 1
  44   23   24 ar
  45   23   51 1
  46   24   25 ar
  47   24   52 1
  48   25   26 ar
  49   25   53 1
  50   26   33 1
  51   27   28 1
  52   28   54 1
  53   28   55 1
  54   28   56 1
  55   29   30 1
  56   30   31 1
  57   30   32 1
  58   30   57 1
  59   31   58 1
  60   31   59 1
  61   31   60 1
  62   32   61 1
  63   32   62 1
  64   32   63 1
  65   33   34 2
  66   33   35 2

#	End of record

