#	Name: ASD07110016
#	Creating user name:	WinNT
#	Creation time:	15. 06. 2019 21:09

#	Modifying user name:	WinNT
#	Modification time:	15. 06. 2019 21:09

#	Program:	/corina/corina34_cracker 3.40 0067  02.08.2006

@<TRIPOS>MOLECULE
ASD07110016
 427  436    0    0    0
SMALL
NO_CHARGES


@<TRIPOS>ATOM
   1 C1            -0.3751    12.9041   -32.2220 C.2     
   2 O2            -0.0923    11.7394   -32.4072 O.2     
   3 N3            -1.9712    12.0496   -30.6013 N.3     
   4 C4            -1.4362    13.2713   -31.2170 C.3     
   5 C5             2.4837    12.9361   -33.2825 C.2     
   6 O6             2.4453    12.6301   -32.1096 O.2     
   7 N7             0.2636    13.8704   -32.9111 N.am    
   8 C8             1.3182    13.6544   -33.9125 C.3     
   9 C9             1.7664    15.0437   -34.4130 C.3     
  10 C10            1.3372    15.9848   -33.2564 C.3     
  11 C11            0.0160    15.3187   -32.7903 C.3     
  12 C12            5.9588    12.2445   -34.1818 C.2     
  13 O13            5.9128    12.9761   -35.1481 O.2     
  14 N14            3.5687    12.6337   -34.0227 N.am    
  15 C15            4.7017    11.9354   -33.4103 C.3     
  16 C16            4.4455    10.4272   -33.4359 C.3     
  17 O17            4.4089     9.9732   -34.7903 O.3     
  18 C18            9.3508    10.8929   -34.3556 C.2     
  19 O19            9.2425    10.1403   -33.4108 O.2     
  20 N20            7.1341    11.7080   -33.7981 N.am    
  21 C21            8.3561    12.0085   -34.5482 C.3     
  22 C22            8.9568    13.3207   -34.0400 C.3     
  23 C23            8.0140    14.4775   -34.3774 C.3     
  24 C24            8.5431    15.7672   -33.7467 C.3     
  25 C25            7.9373    14.6466   -35.8960 C.3     
  26 C26            9.3566    11.3183   -37.3751 C.2     
  27 O27            8.4081    10.6612   -37.0015 O.2     
  28 N28           10.3608    10.7316   -35.2334 N.am    
  29 C29           10.5498    11.4996   -36.4727 C.3     
  30 C30           11.8173    10.9522   -37.1622 C.3     
  31 C31           11.9532     9.5288   -36.5598 C.3     
  32 C32           11.4624     9.7601   -35.1066 C.3     
  33 C33            8.4253    10.2849   -40.1726 C.2     
  34 O34            9.3978     9.6123   -39.9028 O.2     
  35 N35            9.3434    11.8863   -38.5972 N.am    
  36 C36            8.2306    11.6262   -39.5139 C.3     
  37 C37            8.1859    12.7184   -40.5845 C.3     
  38 C38            7.8596    14.0408   -39.9397 C.2     
  39 C39            6.6389    14.5815   -39.8000 C.2     
  40 N40            6.7336    15.7900   -39.1654 N.pl3   
  41 C41            8.0512    16.0635   -38.8737 C.ar    
  42 C42            8.6928    17.1284   -38.2501 C.ar    
  43 C43           10.0626    17.1102   -38.1022 C.ar    
  44 C44           10.8109    16.0389   -38.5697 C.ar    
  45 C45           10.2011    14.9825   -39.1859 C.ar    
  46 C46            8.8138    14.9772   -39.3407 C.ar    
  47 C47            6.9818     8.5072   -43.0220 C.2     
  48 O48            6.0210     9.2262   -43.1974 O.2     
  49 N49            7.5186     9.8326   -41.0614 N.am    
  50 C50            7.7079     8.5286   -41.7017 C.3     
  51 C51            7.1502     7.4296   -40.7951 C.3     
  52 C52            7.9847     7.3391   -39.5435 C.ar    
  53 C53            7.6541     8.0994   -38.4370 C.ar    
  54 C54            8.4178     8.0186   -37.2887 C.ar    
  55 C55            9.5171     7.1733   -37.2462 C.ar    
  56 O56           10.2697     7.0918   -36.1176 O.3     
  57 C57            9.8465     6.4112   -38.3577 C.ar    
  58 C58            9.0765     6.4917   -39.5018 C.ar    
  59 C59            5.3291     6.9716   -45.0735 C.2     
  60 O60            4.9266     6.7848   -43.9448 O.2     
  61 N61            7.4002     7.6891   -44.0080 N.am    
  62 C62            6.7263     7.4891   -45.2993 C.3     
  63 C63            7.5495     6.4502   -46.0896 C.3     
  64 C64            8.3271     5.7020   -44.9748 C.3     
  65 C65            8.6128     6.8514   -43.9728 C.3     
  66 C66            2.4867     6.0116   -47.2352 C.2     
  67 O67            3.0772     6.2634   -48.2642 O.2     
  68 N68            4.5268     6.7163   -46.1259 N.am    
  69 C69            3.1685     6.2132   -45.9065 C.3     
  70 C70            0.0482     6.5208   -49.1707 C.2     
  71 O71            0.1683     7.5725   -48.5787 O.2     
  72 N72            1.2207     5.5515   -47.2800 N.am    
  73 C73            0.5956     5.2515   -48.5706 C.3     
  74 C74           -0.5441     4.2516   -48.3651 C.3     
  75 C75            0.0208     2.9353   -47.8969 C.2     
  76 O76            1.2218     2.7757   -47.8427 O.2     
  77 N77           -0.8087     1.9354   -47.5383 N.am    
  78 C78           -2.2315     7.3856   -51.8944 C.2     
  79 O79           -2.5562     6.2295   -52.0643 O.2     
  80 N80           -0.5749     6.4873   -50.3653 N.am    
  81 C81           -1.1071     7.7213   -50.9488 C.3     
  82 C82            0.0036     8.4443   -51.7132 C.3     
  83 C83            1.0878     8.8952   -50.7323 C.3     
  84 C84            2.1818     9.6074   -51.4853 C.2     
  85 O85            2.1024     9.7407   -52.6836 O.2     
  86 O86            3.2443    10.0936   -50.8248 O.3     
  87 C87           -4.1072     9.1398   -54.4959 C.2     
  88 O88           -3.7587    10.2697   -54.2264 O.2     
  89 N89           -2.8761     8.3702   -52.5514 N.am    
  90 C90           -3.9691     8.0439   -53.4707 C.3     
  91 C91           -5.2751     7.9135   -52.6844 C.3     
  92 C92           -5.5571    10.9939   -56.4345 C.2     
  93 O93           -6.0325    11.0518   -55.3202 O.2     
  94 N94           -4.6180     8.8641   -55.7123 N.am    
  95 C95           -4.7164     9.8089   -56.8344 C.3     
  96 C96           -5.3874     9.0608   -58.0057 C.3     
  97 C97           -6.1426     7.9072   -57.2941 C.3     
  98 C98           -5.1648     7.5635   -56.1399 C.3     
  99 C99           -7.2021    13.7671   -58.1569 C.2     
 100 O100          -6.8221    13.4289   -59.2579 O.2     
 101 N101          -5.7806    11.9895   -57.3150 N.am    
 102 C102          -6.5978    13.1415   -56.9262 C.3     
 103 C103          -5.7209    14.1702   -56.2094 C.3     
 104 C104          -5.2192    13.5813   -54.8895 C.3     
 105 C105          -4.5259    14.5274   -57.0955 C.3     
 106 C106          -9.3705    16.6046   -58.9377 C.2     
 107 O107          -9.2111    17.0995   -57.8420 O.2     
 108 N108          -8.1648    14.7023   -58.0341 N.am    
 109 C109          -8.8330    15.2269   -59.2276 C.3     
 110 C110          -9.9872    14.3002   -59.6148 C.3     
 111 C111          -9.4297    12.9370   -60.0292 C.3     
 112 C112         -10.5666    12.0242   -60.4106 C.2     
 113 O113         -11.7058    12.4230   -60.3564 O.2     
 114 O114         -10.3136    10.7680   -60.8104 O.3     
 115 C115         -11.8178    18.6648   -59.0087 C.2     
 116 O116         -12.3780    17.6142   -58.7780 O.2     
 117 N117         -10.0283    17.2867   -59.8961 N.am    
 118 C118         -10.4547    18.6667   -59.6513 C.3     
 119 C119         -10.5179    19.4242   -60.9792 C.3     
 120 C120          -9.1302    19.5473   -61.5538 C.2     
 121 O121          -8.1726    19.1698   -60.9124 O.2     
 122 N122          -8.9533    20.0770   -62.7804 N.am    
 123 C123         -14.4356    21.1326   -58.3604 C.2     
 124 O124         -13.8796    21.9799   -59.0266 O.2     
 125 N125         -12.4144    19.8307   -58.6905 N.am    
 126 C126         -13.7396    19.8288   -58.0658 C.3     
 127 C127         -13.5898    19.6613   -56.5524 C.3     
 128 C128         -12.9968    18.2841   -56.2480 C.3     
 129 C129         -12.8493    18.1191   -54.7573 C.2     
 130 O130         -13.1852    19.0148   -54.0118 O.2     
 131 N131         -12.3439    16.9762   -54.2526 N.am    
 132 C132         -17.3751    22.9014   -57.0981 C.2     
 133 O133         -17.5239    22.1174   -56.1848 O.2     
 134 N134         -15.6761    21.3570   -57.8836 N.am    
 135 C135         -16.3528    22.6244   -58.1700 C.3     
 136 C136         -17.0501    22.5345   -59.5289 C.3     
 137 C137         -16.0008    22.3778   -60.6313 C.3     
 138 C138         -16.6876    22.2893   -61.9697 C.2     
 139 O139         -17.8928    22.3458   -62.0352 O.2     
 140 O140         -15.9606    22.1477   -63.0891 O.3     
 141 C141         -20.1956    25.1864   -56.6655 C.2     
 142 O142         -20.1390    25.5632   -57.8169 O.2     
 143 N143         -18.1242    24.0205   -57.1543 N.am    
 144 C144         -19.1181    24.2898   -56.1123 C.3     
 145 C145         -18.4399    24.9793   -54.9267 C.3     
 146 C146         -17.4327    24.0212   -54.2875 C.3     
 147 C147         -16.7546    24.7107   -53.1019 C.3     
 148 N148         -15.7902    23.7933   -52.4898 N.pl3   
 149 C149         -15.0550    24.1956   -51.3999 C.2     
 150 N150         -14.1970    23.3794   -50.8554 N.2     
 151 N151         -15.2249    25.4587   -50.8844 N.pl3   
 152 C152         -22.9176    27.2025   -55.2911 C.2     
 153 O153         -22.5413    27.0339   -54.1506 O.2     
 154 N154         -21.2223    25.5693   -55.8808 N.am    
 155 C155         -22.2699    26.4409   -56.4187 C.3     
 156 C156         -23.3237    25.5914   -57.1319 C.3     
 157 C157         -22.7033    24.9256   -58.3331 C.ar    
 158 C158         -22.1184    23.6794   -58.2074 C.ar    
 159 C159         -21.5493    23.0687   -59.3092 C.ar    
 160 C160         -21.5656    23.7040   -60.5369 C.ar    
 161 C161         -22.1514    24.9497   -60.6628 C.ar    
 162 C162         -22.7243    25.5585   -59.5618 C.ar    
 163 C163         -25.5831    28.1385   -53.7888 C.2     
 164 O164         -25.8827    27.0256   -54.1667 O.2     
 165 N165         -23.9151    28.0711   -55.5502 N.am    
 166 C166         -24.4705    28.8918   -54.4712 C.3     
 167 C167         -25.0195    30.1958   -55.0532 C.3     
 168 C168         -23.8839    31.0139   -55.6120 C.2     
 169 O169         -22.7385    30.6460   -55.4583 O.2     
 170 N170         -24.1412    32.1544   -56.2825 N.am    
 171 C171         -28.6275    28.3008   -52.9903 C.2     
 172 O172         -28.5493    29.0053   -53.9745 O.2     
 173 N173         -26.2453    28.7015   -52.7588 N.am    
 174 C174         -27.3976    28.0171   -52.1670 C.3     
 175 C175         -27.6123    28.5219   -50.7388 C.3     
 176 C176         -26.4561    28.0899   -49.8741 C.2     
 177 O177         -25.5101    27.5148   -50.3695 O.2     
 178 N178         -26.4732    28.3426   -48.5504 N.am    
 179 C179         -32.2217    28.0788   -52.6276 C.2     
 180 O180         -32.1271    28.0149   -51.4202 O.2     
 181 N181         -29.8144    27.7717   -52.6330 N.am    
 182 C182         -30.9891    27.9641   -53.4871 C.3     
 183 C183         -31.1348    26.7687   -54.4308 C.3     
 184 C184         -31.1356    25.4733   -53.6167 C.3     
 185 C185         -32.4040    25.4080   -52.7635 C.3     
 186 C186         -29.9643    26.7511   -55.4160 C.3     
 187 C187         -35.8248    27.8651   -53.2065 C.2     
 188 O188         -35.6765    27.5871   -54.3777 O.2     
 189 N189         -33.4291    28.2522   -53.2008 N.am    
 190 C190         -34.6372    28.2713   -52.3724 C.3     
 191 C191         -34.8576    29.6827   -51.8245 C.3     
 192 C192         -33.7293    30.0416   -50.8922 C.2     
 193 C193         -32.9382    31.1272   -50.9883 C.2     
 194 N194         -32.0526    31.0654   -49.9464 N.pl3   
 195 C195         -32.3336    29.9434   -49.2494 C.2     
 196 N196         -33.3407    29.3388   -49.8179 N.2     
 197 C197         -39.4619    27.9957   -52.8638 C.2     
 198 O198         -39.3988    28.6720   -51.8591 O.2     
 199 N199         -37.0515    27.8109   -52.6511 N.am    
 200 C200         -38.2060    27.4160   -53.4620 C.3     
 201 C201         -38.3116    25.8899   -53.4899 C.3     
 202 C202         -37.0934    25.3074   -54.2093 C.3     
 203 C203         -37.1355    23.7801   -54.1285 C.3     
 204 C204         -37.1118    25.7413   -55.6763 C.3     
 205 C205         -43.0590    27.4830   -53.2652 C.2     
 206 O206         -42.8981    26.5075   -53.9677 O.2     
 207 N207         -40.6551    27.7625   -53.4454 N.am    
 208 C208         -41.8760    28.3260   -52.8639 C.3     
 209 C209         -42.0715    29.7550   -53.3744 C.3     
 210 C210         -40.9334    30.6398   -52.8619 C.3     
 211 C211         -41.1260    32.0474   -53.3647 C.2     
 212 O212         -42.0797    32.3163   -54.0640 O.2     
 213 N213         -40.2384    33.0073   -53.0371 N.am    
 214 C214         -45.9445    27.4383   -54.5841 C.2     
 215 O215         -45.3958    28.3467   -55.1616 O.2     
 216 N216         -44.2957    27.8130   -52.8433 N.am    
 217 C217         -45.4457    26.9935   -53.2334 C.3     
 218 C218         -46.5615    27.1552   -52.1990 C.3     
 219 C219         -46.1046    26.5970   -50.8759 C.2     
 220 C220         -46.0902    27.2560   -49.7015 C.2     
 221 N221         -45.6060    26.3840   -48.7640 N.pl3   
 222 C222         -45.3411    25.2217   -49.3986 C.2     
 223 N223         -45.6465    25.3549   -50.6604 N.2     
 224 O224         -46.9985    26.8254   -55.1455 O.3     
 225 H225          -2.6852    12.2693   -29.9230 H       
 226 H226          -2.3220    11.4149   -31.3028 H       
 227 H227          -1.0016    13.9068   -30.4454 H       
 228 H228          -2.2415    13.8081   -31.7186 H       
 229 H229           0.9262    13.0673   -34.7430 H       
 230 H230           2.8469    15.0730   -34.5532 H       
 231 H231           1.2494    15.3064   -35.3359 H       
 232 H232           2.0800    15.9873   -32.4587 H       
 233 H233           1.1554    16.9954   -33.6221 H       
 234 H234          -0.8103    15.6174   -33.4353 H       
 235 H235          -0.1961    15.5821   -31.7541 H       
 236 H236           3.5995    12.8784   -34.9608 H       
 237 H237           4.8180    12.2668   -32.3784 H       
 238 H238           5.2451     9.9137   -32.9020 H       
 239 H239           3.4912    10.2126   -32.9548 H       
 240 H240           4.2499     9.0238   -34.8827 H       
 241 H241           7.1709    11.1229   -33.0253 H       
 242 H242           8.1180    12.1041   -35.6075 H       
 243 H243           9.0910    13.2646   -32.9597 H       
 244 H244           9.9221    13.4875   -34.5179 H       
 245 H245           7.0200    14.2625   -33.9851 H       
 246 H246           9.5370    15.9823   -34.1390 H       
 247 H247           7.8714    16.5913   -33.9870 H       
 248 H248           8.5977    15.6467   -32.6647 H       
 249 H249           8.9398    14.7990   -36.2958 H       
 250 H250           7.5014    13.7515   -36.3397 H       
 251 H251           7.3160    15.5099   -36.1346 H       
 252 H252          10.6797    12.5561   -36.2379 H       
 253 H253          11.6778    10.9023   -38.2421 H       
 254 H254          12.6859    11.5613   -36.9121 H       
 255 H255          11.3123     8.8199   -37.0841 H       
 256 H256          12.9915     9.1971   -36.5716 H       
 257 H257          12.2639    10.1733   -34.4942 H       
 258 H258          11.0979     8.8272   -34.6767 H       
 259 H259          10.0708    12.4672   -38.8699 H       
 260 H260           7.2937    11.6249   -38.9568 H       
 261 H261           9.1559    12.7840   -41.0773 H       
 262 H262           7.4200    12.4744   -41.3207 H       
 263 H263           5.7183    14.1296   -40.1388 H       
 264 H264           5.9842    16.3679   -38.9527 H       
 265 H265           8.1192    17.9668   -37.8833 H       
 266 H266          10.5590    17.9382   -37.6180 H       
 267 H267          11.8838    16.0403   -38.4458 H       
 268 H268          10.7899    14.1525   -39.5475 H       
 269 H269           6.7408    10.3705   -41.2771 H       
 270 H270           8.7712     8.3569   -41.8689 H       
 271 H271           6.1201     7.6663   -40.5286 H       
 272 H272           7.1792     6.4752   -41.3209 H       
 273 H273           6.7982     8.7572   -38.4706 H       
 274 H274           8.1595     8.6132   -36.4249 H       
 275 H275           9.9730     6.4138   -35.4952 H       
 276 H276          10.7020     5.7527   -38.3272 H       
 277 H277           9.3300     5.8953   -40.3658 H       
 278 H278           6.6887     8.4305   -45.8475 H       
 279 H279           6.8929     5.7662   -46.6274 H       
 280 H280           8.2381     6.9444   -46.7750 H       
 281 H281           7.7096     4.9274   -44.5202 H       
 282 H282           9.2562     5.2825   -45.3606 H       
 283 H283           9.4815     7.4278   -44.2908 H       
 284 H284           8.7682     6.4509   -42.9710 H       
 285 H285           4.8487     6.8657   -47.0287 H       
 286 H286           2.6050     6.9346   -45.3147 H       
 287 H287           3.2145     5.2633   -45.3739 H       
 288 H288           0.7234     5.4190   -46.4578 H       
 289 H289           1.3384     4.8225   -49.2431 H       
 290 H290          -1.2353     4.6375   -47.6158 H       
 291 H291          -1.0735     4.1055   -49.3066 H       
 292 H292          -1.7693     2.0630   -47.5816 H       
 293 H293          -0.4451     1.0881   -47.2370 H       
 294 H294          -0.6710     5.6462   -50.8388 H       
 295 H295          -1.4811     8.3670   -50.1543 H       
 296 H296           0.4380     7.7677   -52.4492 H       
 297 H297          -0.4120     9.3149   -52.2208 H       
 298 H298           0.6533     9.5718   -49.9964 H       
 299 H299           1.5033     8.0246   -50.2248 H       
 300 H300           3.9203    10.5426   -51.3506 H       
 301 H301          -2.6163     9.2948   -52.4155 H       
 302 H302          -3.7519     7.1014   -53.9733 H       
 303 H303          -5.4458     8.8240   -52.1099 H       
 304 H304          -6.1025     7.7605   -53.3772 H       
 305 H305          -5.2073     7.0632   -52.0059 H       
 306 H306          -3.7207    10.1426   -57.1265 H       
 307 H307          -6.0856     9.7130   -58.5304 H       
 308 H308          -4.6375     8.6658   -58.6911 H       
 309 H309          -7.1032     8.2486   -56.9083 H       
 310 H310          -6.2719     7.0549   -57.9612 H       
 311 H311          -4.3650     6.9149   -56.4976 H       
 312 H312          -5.7006     7.0885   -55.3181 H       
 313 H313          -5.4004    11.9432   -58.2062 H       
 314 H314          -7.3935    12.8134   -56.2574 H       
 315 H315          -6.3051    15.0681   -56.0079 H       
 316 H316          -4.6350    12.6834   -55.0910 H       
 317 H317          -4.5945    14.3141   -54.3788 H       
 318 H318          -6.0706    13.3268   -54.2582 H       
 319 H319          -4.8791    15.0250   -57.9987 H       
 320 H320          -3.8567    15.1940   -56.5515 H       
 321 H321          -3.9905    13.6178   -57.3675 H       
 322 H322          -8.4153    15.0280   -57.1554 H       
 323 H323          -8.1190    15.2809   -60.0495 H       
 324 H324         -10.6549    14.1757   -58.7622 H       
 325 H325         -10.5390    14.7356   -60.4479 H       
 326 H326          -8.7620    13.0614   -60.8818 H       
 327 H327          -8.8779    12.5015   -59.1961 H       
 328 H328         -11.0751    10.2201   -61.0447 H       
 329 H329         -10.2194    16.8639   -60.7479 H       
 330 H330          -9.7410    19.1553   -58.9880 H       
 331 H331         -11.1535    18.8802   -61.6779 H       
 332 H332         -10.9310    20.4187   -60.8109 H       
 333 H333          -9.7192    20.3790   -63.2933 H       
 334 H334          -8.0600    20.1563   -63.1502 H       
 335 H335         -11.9664    20.6710   -58.8750 H       
 336 H336         -14.3288    19.0038   -58.4661 H       
 337 H337         -12.9277    20.4357   -56.1649 H       
 338 H338         -14.5675    19.7488   -56.0786 H       
 339 H339         -13.6589    17.5098   -56.6355 H       
 340 H340         -12.0191    18.1967   -56.7218 H       
 341 H341         -12.0752    16.2598   -54.8488 H       
 342 H342         -12.2489    16.8700   -53.2931 H       
 343 H343         -16.1209    20.6793   -57.3508 H       
 344 H344         -15.6199    23.4310   -58.1904 H       
 345 H345         -17.7182    21.6734   -59.5382 H       
 346 H346         -17.6264    23.4433   -59.7024 H       
 347 H347         -15.3326    23.2390   -60.6220 H       
 348 H348         -15.4245    21.4690   -60.4578 H       
 349 H349         -16.4457    22.0954   -63.9240 H       
 350 H350         -18.0052    24.6476   -57.8848 H       
 351 H351         -19.5613    23.3506   -55.7814 H       
 352 H352         -17.9214    25.8729   -55.2741 H       
 353 H353         -19.1929    25.2594   -54.1900 H       
 354 H354         -17.9513    23.1276   -53.9401 H       
 355 H355         -16.6798    23.7411   -55.0241 H       
 356 H356         -16.2360    25.6043   -53.4493 H       
 357 H357         -17.5075    24.9908   -52.3652 H       
 358 H358         -15.6703    22.9021   -52.8536 H       
 359 H359         -13.6783    23.6632   -50.0864 H       
 360 H360         -15.8634    26.0661   -51.2896 H       
 361 H361         -14.7062    25.7425   -50.1154 H       
 362 H362         -21.2676    25.2679   -54.9600 H       
 363 H363         -21.8300    27.1437   -57.1263 H       
 364 H364         -23.7001    24.8302   -56.4485 H       
 365 H365         -24.1468    26.2290   -57.4545 H       
 366 H366         -22.1056    23.1831   -57.2483 H       
 367 H367         -21.0916    22.0954   -59.2109 H       
 368 H368         -21.1204    23.2271   -61.3976 H       
 369 H369         -22.1638    25.4462   -61.6218 H       
 370 H370         -23.1852    26.5302   -59.6610 H       
 371 H371         -24.2653    28.1527   -56.4511 H       
 372 H372         -23.6877    29.1182   -53.7472 H       
 373 H373         -25.7292    29.9683   -55.8487 H       
 374 H374         -25.5224    30.7607   -54.2683 H       
 375 H375         -25.0573    32.4486   -56.4055 H       
 376 H376         -23.4102    32.6810   -56.6422 H       
 377 H377         -25.9589    29.5598   -52.4092 H       
 378 H378         -27.2123    26.9431   -52.1488 H       
 379 H379         -27.6757    29.6100   -50.7436 H       
 380 H380         -28.5382    28.1058   -50.3417 H       
 381 H381         -27.2298    28.8025   -48.1542 H       
 382 H382         -25.7290    28.0645   -47.9939 H       
 383 H383         -29.8909    27.2634   -51.8104 H       
 384 H384         -30.8677    28.8760   -54.0718 H       
 385 H385         -32.0718    26.8525   -54.9813 H       
 386 H386         -31.1084    24.6190   -54.2931 H       
 387 H387         -30.2599    25.4512   -52.9681 H       
 388 H388         -33.2645    25.6912   -53.3696 H       
 389 H389         -32.5399    24.3924   -52.3918 H       
 390 H390         -32.3111    26.0938   -51.9214 H       
 391 H391         -29.0265    26.6815   -54.8649 H       
 392 H392         -30.0606    25.8915   -56.0793 H       
 393 H393         -29.9720    27.6678   -56.0058 H       
 394 H394         -33.4982    28.3644   -54.1618 H       
 395 H395         -34.5201    27.5738   -51.5430 H       
 396 H396         -34.8860    30.3930   -52.6508 H       
 397 H397         -35.8024    29.7185   -51.2820 H       
 398 H398         -32.9919    31.8981   -51.7427 H       
 399 H399         -31.3537    31.7075   -49.7462 H       
 400 H400         -31.8136    29.6047   -48.3654 H       
 401 H401         -37.1701    28.0333   -51.7144 H       
 402 H402         -38.0813    27.7902   -54.4781 H       
 403 H403         -38.3470    25.5095   -52.4690 H       
 404 H404         -39.2194    25.5982   -54.0180 H       
 405 H405         -36.1825    25.6714   -53.7341 H       
 406 H406         -38.0465    23.4162   -54.6037 H       
 407 H407         -36.2676    23.3652   -54.6410 H       
 408 H408         -37.1224    23.4711   -53.0834 H       
 409 H409         -38.0228    25.3773   -56.1515 H       
 410 H410         -37.0818    26.8294   -55.7339 H       
 411 H411         -36.2439    25.3263   -56.1889 H       
 412 H412         -40.7055    27.2215   -54.2490 H       
 413 H413         -41.7895    28.3369   -51.7774 H       
 414 H414         -42.0692    29.7550   -54.4644 H       
 415 H415         -43.0241    30.1427   -53.0131 H       
 416 H416         -40.9358    30.6398   -51.7719 H       
 417 H417         -39.9809    30.2521   -53.2232 H       
 418 H418         -39.4757    32.7922   -52.4778 H       
 419 H419         -40.3624    33.9133   -53.3607 H       
 420 H420         -44.4244    28.5932   -52.2814 H       
 421 H421         -45.1457    25.9468   -53.2835 H       
 422 H422         -46.8002    28.2125   -52.0844 H       
 423 H423         -47.4481    26.6168   -52.5338 H       
 424 H424         -46.4007    28.2764   -49.5321 H       
 425 H425         -45.4771    26.5668   -47.8202 H       
 426 H426         -44.9460    24.3286   -48.9374 H       
 427 H427         -47.2819    27.1458   -56.0127 H       
@<TRIPOS>BOND
   1    1    2 2
   2    1    4 1
   3    1    7 am
   4    3    4 1
   5    3  225 1
   6    3  226 1
   7    4  227 1
   8    4  228 1
   9    5    6 2
  10    5   14 am
  11    5    8 1
  12    7    8 1
  13    7   11 1
  14    8    9 1
  15    8  229 1
  16    9   10 1
  17    9  230 1
  18    9  231 1
  19   10   11 1
  20   10  232 1
  21   10  233 1
  22   11  234 1
  23   11  235 1
  24   12   13 2
  25   12   15 1
  26   12   20 am
  27   14   15 1
  28   14  236 1
  29   15   16 1
  30   15  237 1
  31   16   17 1
  32   16  238 1
  33   16  239 1
  34   17  240 1
  35   18   19 2
  36   18   21 1
  37   18   28 am
  38   20   21 1
  39   20  241 1
  40   21   22 1
  41   21  242 1
  42   22   23 1
  43   22  243 1
  44   22  244 1
  45   23   24 1
  46   23   25 1
  47   23  245 1
  48   24  246 1
  49   24  247 1
  50   24  248 1
  51   25  249 1
  52   25  250 1
  53   25  251 1
  54   26   27 2
  55   26   35 am
  56   26   29 1
  57   28   29 1
  58   28   32 1
  59   29   30 1
  60   29  252 1
  61   30   31 1
  62   30  253 1
  63   30  254 1
  64   31   32 1
  65   31  255 1
  66   31  256 1
  67   32  257 1
  68   32  258 1
  69   33   34 2
  70   33   36 1
  71   33   49 am
  72   35   36 1
  73   35  259 1
  74   36   37 1
  75   36  260 1
  76   37   38 1
  77   37  261 1
  78   37  262 1
  79   38   39 2
  80   38   46 1
  81   39   40 1
  82   39  263 1
  83   40   41 1
  84   40  264 1
  85   41   42 ar
  86   41   46 ar
  87   42   43 ar
  88   42  265 1
  89   43   44 ar
  90   43  266 1
  91   44   45 ar
  92   44  267 1
  93   45   46 ar
  94   45  268 1
  95   47   48 2
  96   47   50 1
  97   47   61 am
  98   49   50 1
  99   49  269 1
 100   50   51 1
 101   50  270 1
 102   51   52 1
 103   51  271 1
 104   51  272 1
 105   52   53 ar
 106   52   58 ar
 107   53   54 ar
 108   53  273 1
 109   54   55 ar
 110   54  274 1
 111   55   56 1
 112   55   57 ar
 113   56  275 1
 114   57   58 ar
 115   57  276 1
 116   58  277 1
 117   59   60 2
 118   59   68 am
 119   59   62 1
 120   61   62 1
 121   61   65 1
 122   62   63 1
 123   62  278 1
 124   63   64 1
 125   63  279 1
 126   63  280 1
 127   64   65 1
 128   64  281 1
 129   64  282 1
 130   65  283 1
 131   65  284 1
 132   66   67 2
 133   66   69 1
 134   66   72 am
 135   68   69 1
 136   68  285 1
 137   69  286 1
 138   69  287 1
 139   70   71 2
 140   70   73 1
 141   70   80 am
 142   72   73 1
 143   72  288 1
 144   73   74 1
 145   73  289 1
 146   74   75 1
 147   74  290 1
 148   74  291 1
 149   75   76 2
 150   75   77 am
 151   77  292 1
 152   77  293 1
 153   78   79 2
 154   78   81 1
 155   78   89 am
 156   80   81 1
 157   80  294 1
 158   81   82 1
 159   81  295 1
 160   82   83 1
 161   82  296 1
 162   82  297 1
 163   83   84 1
 164   83  298 1
 165   83  299 1
 166   84   85 2
 167   84   86 1
 168   86  300 1
 169   87   88 2
 170   87   90 1
 171   87   94 am
 172   89   90 1
 173   89  301 1
 174   90   91 1
 175   90  302 1
 176   91  303 1
 177   91  304 1
 178   91  305 1
 179   92   93 2
 180   92  101 am
 181   92   95 1
 182   94   95 1
 183   94   98 1
 184   95   96 1
 185   95  306 1
 186   96   97 1
 187   96  307 1
 188   96  308 1
 189   97   98 1
 190   97  309 1
 191   97  310 1
 192   98  311 1
 193   98  312 1
 194   99  100 2
 195   99  102 1
 196   99  108 am
 197  101  102 1
 198  101  313 1
 199  102  103 1
 200  102  314 1
 201  103  104 1
 202  103  105 1
 203  103  315 1
 204  104  316 1
 205  104  317 1
 206  104  318 1
 207  105  319 1
 208  105  320 1
 209  105  321 1
 210  106  107 2
 211  106  109 1
 212  106  117 am
 213  108  109 1
 214  108  322 1
 215  109  110 1
 216  109  323 1
 217  110  111 1
 218  110  324 1
 219  110  325 1
 220  111  112 1
 221  111  326 1
 222  111  327 1
 223  112  113 2
 224  112  114 1
 225  114  328 1
 226  115  116 2
 227  115  118 1
 228  115  125 am
 229  117  118 1
 230  117  329 1
 231  118  119 1
 232  118  330 1
 233  119  120 1
 234  119  331 1
 235  119  332 1
 236  120  121 2
 237  120  122 am
 238  122  333 1
 239  122  334 1
 240  123  124 2
 241  123  126 1
 242  123  134 am
 243  125  126 1
 244  125  335 1
 245  126  127 1
 246  126  336 1
 247  127  128 1
 248  127  337 1
 249  127  338 1
 250  128  129 1
 251  128  339 1
 252  128  340 1
 253  129  130 2
 254  129  131 am
 255  131  341 1
 256  131  342 1
 257  132  133 2
 258  132  135 1
 259  132  143 am
 260  134  135 1
 261  134  343 1
 262  135  136 1
 263  135  344 1
 264  136  137 1
 265  136  345 1
 266  136  346 1
 267  137  138 1
 268  137  347 1
 269  137  348 1
 270  138  139 2
 271  138  140 1
 272  140  349 1
 273  141  142 2
 274  141  144 1
 275  141  154 am
 276  143  144 1
 277  143  350 1
 278  144  145 1
 279  144  351 1
 280  145  146 1
 281  145  352 1
 282  145  353 1
 283  146  147 1
 284  146  354 1
 285  146  355 1
 286  147  148 1
 287  147  356 1
 288  147  357 1
 289  148  149 1
 290  148  358 1
 291  149  150 2
 292  149  151 1
 293  150  359 1
 294  151  360 1
 295  151  361 1
 296  152  153 2
 297  152  155 1
 298  152  165 am
 299  154  155 1
 300  154  362 1
 301  155  156 1
 302  155  363 1
 303  156  157 1
 304  156  364 1
 305  156  365 1
 306  157  158 ar
 307  157  162 ar
 308  158  159 ar
 309  158  366 1
 310  159  160 ar
 311  159  367 1
 312  160  161 ar
 313  160  368 1
 314  161  162 ar
 315  161  369 1
 316  162  370 1
 317  163  164 2
 318  163  166 1
 319  163  173 am
 320  165  166 1
 321  165  371 1
 322  166  167 1
 323  166  372 1
 324  167  168 1
 325  167  373 1
 326  167  374 1
 327  168  169 2
 328  168  170 am
 329  170  375 1
 330  170  376 1
 331  171  172 2
 332  171  174 1
 333  171  181 am
 334  173  174 1
 335  173  377 1
 336  174  175 1
 337  174  378 1
 338  175  176 1
 339  175  379 1
 340  175  380 1
 341  176  177 2
 342  176  178 am
 343  178  381 1
 344  178  382 1
 345  179  180 2
 346  179  182 1
 347  179  189 am
 348  181  182 1
 349  181  383 1
 350  182  183 1
 351  182  384 1
 352  183  184 1
 353  183  186 1
 354  183  385 1
 355  184  185 1
 356  184  386 1
 357  184  387 1
 358  185  388 1
 359  185  389 1
 360  185  390 1
 361  186  391 1
 362  186  392 1
 363  186  393 1
 364  187  188 2
 365  187  190 1
 366  187  199 am
 367  189  190 1
 368  189  394 1
 369  190  191 1
 370  190  395 1
 371  191  192 1
 372  191  396 1
 373  191  397 1
 374  192  193 2
 375  192  196 1
 376  193  194 1
 377  193  398 1
 378  194  195 1
 379  194  399 1
 380  195  196 2
 381  195  400 1
 382  197  198 2
 383  197  200 1
 384  197  207 am
 385  199  200 1
 386  199  401 1
 387  200  201 1
 388  200  402 1
 389  201  202 1
 390  201  403 1
 391  201  404 1
 392  202  203 1
 393  202  204 1
 394  202  405 1
 395  203  406 1
 396  203  407 1
 397  203  408 1
 398  204  409 1
 399  204  410 1
 400  204  411 1
 401  205  206 2
 402  205  208 1
 403  205  216 am
 404  207  208 1
 405  207  412 1
 406  208  209 1
 407  208  413 1
 408  209  210 1
 409  209  414 1
 410  209  415 1
 411  210  211 1
 412  210  416 1
 413  210  417 1
 414  211  212 2
 415  211  213 am
 416  213  418 1
 417  213  419 1
 418  214  215 2
 419  214  217 1
 420  214  224 1
 421  216  217 1
 422  216  420 1
 423  217  218 1
 424  217  421 1
 425  218  219 1
 426  218  422 1
 427  218  423 1
 428  219  220 2
 429  219  223 1
 430  220  221 1
 431  220  424 1
 432  221  222 1
 433  221  425 1
 434  222  223 2
 435  222  426 1
 436  224  427 1

#	End of record

