#	Name: ASD03240136
#	Creating user name:	WinNT
#	Creation time:	15. 06. 2019 20:34

#	Modifying user name:	WinNT
#	Modification time:	15. 06. 2019 20:34

#	Program:	/corina/corina34_cracker 3.40 0067  02.08.2006

@<TRIPOS>MOLECULE
ASD03240136
  86   93    0    0    0
SMALL
NO_CHARGES


@<TRIPOS>ATOM
   1 C1            -0.0387     1.4123     0.2565 C.ar    
   2 C2            -0.0189    -0.0063     0.2418 C.ar    
   3 C3             1.1505     2.1138     0.4986 C.ar    
   4 C4             2.3075     1.3794     0.7155 C.ar    
   5 C5             2.2509    -0.0317     0.6859 C.ar    
   6 N6             1.1179    -0.6679     0.4557 N.ar    
   7 C7             3.4883    -0.8130     0.9174 C.ar    
   8 C8             3.5928     2.0702     0.9758 C.ar    
   9 C9             4.0208     3.0936     0.1313 C.ar    
  10 C10            5.2184     3.7331     0.3786 C.ar    
  11 C11            5.9940     3.3601     1.4617 C.ar    
  12 C12            5.5745     2.3454     2.3030 C.ar    
  13 C13            4.3758     1.7029     2.0693 C.ar    
  14 C14            3.4310    -2.0304     1.5952 C.ar    
  15 C15            4.5869    -2.7535     1.8078 C.ar    
  16 C16            5.8008    -2.2730     1.3502 C.ar    
  17 C17            5.8640    -1.0657     0.6776 C.ar    
  18 C18            4.7141    -0.3366     0.4535 C.ar    
  19 C19            7.0594    -3.0676     1.5857 C.3     
  20 C20           -1.2319    -0.6805    -0.0040 C.ar    
  21 C21           -2.3613     0.0482    -0.2151 C.ar    
  22 N22           -2.3581     1.3741    -0.1972 N.ar    
  23 C23           -1.2643     2.0775     0.0311 C.ar    
  24 N24            7.2765    -3.9861     0.4600 N.3     
  25 C25            8.6064    -4.6043     0.5341 C.3     
  26 C26            8.8535    -5.4384    -0.7249 C.3     
  27 C27            7.7736    -6.5183    -0.8360 C.3     
  28 C28            6.3960    -5.8504    -0.8627 C.3     
  29 C29            6.2201    -5.0044     0.4004 C.3     
  30 C30            7.9766    -7.3049    -2.1053 C.2     
  31 N31            7.5182    -6.9718    -3.3349 N.pl3   
  32 C32            7.9374    -7.9685    -4.1743 C.2     
  33 N33            8.6074    -8.8302    -3.4417 N.2     
  34 N34            8.6320    -8.4296    -2.2202 N.2     
  35 C35            7.6841    -8.0591    -5.6289 C.ar    
  36 C36            8.1807    -9.1435    -6.3514 C.ar    
  37 C37            7.9349    -9.2143    -7.7117 C.ar    
  38 C38            7.2003    -8.1982    -8.3060 C.ar    
  39 C39            6.7377    -7.1512    -7.5292 C.ar    
  40 N40            6.9809    -7.1097    -6.2356 N.ar    
  41 N41           -1.3162     3.4597     0.0392 N.3     
  42 C42           -2.5754     3.9360     0.6285 C.3     
  43 C43           -2.5597     5.4651     0.6917 C.3     
  44 N44           -2.3770     6.0069    -0.6621 N.3     
  45 C45           -1.1178     5.5306    -1.2514 C.3     
  46 C46           -1.1335     4.0015    -1.3146 C.3     
  47 C47           -2.4322     7.4748    -0.6535 C.3     
  48 H48            1.1657     3.1935     0.5154 H       
  49 H49            3.4164     3.3852    -0.7149 H       
  50 H50            5.5510     4.5260    -0.2749 H       
  51 H51            6.9309     3.8629     1.6509 H       
  52 H52            6.1842     2.0584     3.1471 H       
  53 H53            4.0491     0.9110     2.7270 H       
  54 H54            2.4840    -2.4063     1.9532 H       
  55 H55            4.5439    -3.6963     2.3329 H       
  56 H56            6.8145    -0.6955     0.3230 H       
  57 H57            4.7645     0.6056    -0.0720 H       
  58 H58            7.9077    -2.3883     1.6691 H       
  59 H59            6.9603    -3.6402     2.5079 H       
  60 H60           -1.2643    -1.7598    -0.0248 H       
  61 H61           -3.2900    -0.4698    -0.4037 H       
  62 H62            9.3653    -3.8255     0.6085 H       
  63 H63            8.6593    -5.2478     1.4123 H       
  64 H64            8.8145    -4.7931    -1.6025 H       
  65 H65            9.8344    -5.9098    -0.6625 H       
  66 H66            7.8376    -7.1871     0.0223 H       
  67 H67            6.3183    -5.2116    -1.7424 H       
  68 H68            5.6210    -6.6161    -0.8986 H       
  69 H69            6.2842    -5.6460     1.2792 H       
  70 H70            5.2458    -4.5161     0.3776 H       
  71 H71            6.9987    -6.1878    -3.5723 H       
  72 H72            8.7493    -9.9170    -5.8566 H       
  73 H73            8.3069   -10.0418    -8.2975 H       
  74 H74            6.9919    -8.2243    -9.3654 H       
  75 H75            6.1657    -6.3590    -7.9892 H       
  76 H76           -3.4125     3.6060     0.0133 H       
  77 H77           -2.6818     3.5315     1.6350 H       
  78 H78           -3.5046     5.8218     1.1017 H       
  79 H79           -1.7390     5.7943     1.3289 H       
  80 H80           -1.0115     5.9351    -2.2579 H       
  81 H81           -0.2807     5.8606    -0.6362 H       
  82 H82           -0.1887     3.6447    -1.7246 H       
  83 H83           -1.9543     3.6722    -1.9518 H       
  84 H84           -1.6421     7.8643    -0.0116 H       
  85 H85           -2.2942     7.8495    -1.6678 H       
  86 H86           -3.4013     7.7998    -0.2749 H       
@<TRIPOS>BOND
   1    1    2 ar
   2    1    3 ar
   3    1   23 ar
   4    2   20 ar
   5    2    6 ar
   6    3    4 ar
   7    3   48 1
   8    4    5 ar
   9    4    8 1
  10    5    6 ar
  11    5    7 1
  12    7   14 ar
  13    7   18 ar
  14    8    9 ar
  15    8   13 ar
  16    9   10 ar
  17    9   49 1
  18   10   11 ar
  19   10   50 1
  20   11   12 ar
  21   11   51 1
  22   12   13 ar
  23   12   52 1
  24   13   53 1
  25   14   15 ar
  26   14   54 1
  27   15   16 ar
  28   15   55 1
  29   16   17 ar
  30   16   19 1
  31   17   18 ar
  32   17   56 1
  33   18   57 1
  34   19   24 1
  35   19   58 1
  36   19   59 1
  37   20   21 ar
  38   20   60 1
  39   21   22 ar
  40   21   61 1
  41   22   23 ar
  42   23   41 1
  43   24   25 1
  44   24   29 1
  45   25   26 1
  46   25   62 1
  47   25   63 1
  48   26   27 1
  49   26   64 1
  50   26   65 1
  51   27   28 1
  52   27   30 1
  53   27   66 1
  54   28   29 1
  55   28   67 1
  56   28   68 1
  57   29   69 1
  58   29   70 1
  59   30   31 1
  60   30   34 2
  61   31   32 1
  62   31   71 1
  63   32   33 2
  64   32   35 1
  65   33   34 1
  66   35   36 ar
  67   35   40 ar
  68   36   37 ar
  69   36   72 1
  70   37   38 ar
  71   37   73 1
  72   38   39 ar
  73   38   74 1
  74   39   40 ar
  75   39   75 1
  76   41   42 1
  77   41   46 1
  78   42   43 1
  79   42   76 1
  80   42   77 1
  81   43   44 1
  82   43   78 1
  83   43   79 1
  84   44   45 1
  85   44   47 1
  86   45   46 1
  87   45   80 1
  88   45   81 1
  89   46   82 1
  90   46   83 1
  91   47   84 1
  92   47   85 1
  93   47   86 1

#	End of record

