#	Name: ASD01916748
#	Creating user name:	WinNT
#	Creation time:	15. 06. 2019 20:07

#	Modifying user name:	WinNT
#	Modification time:	15. 06. 2019 20:07

#	Program:	/corina/corina34_cracker 3.40 0067  02.08.2006

@<TRIPOS>MOLECULE
ASD01916748
  65   69    0    0    0
SMALL
NO_CHARGES


@<TRIPOS>ATOM
   1 C1            -0.0161     1.3075     0.0930 C.2     
   2 N2            -0.0006     0.0184    -0.1698 N.2     
   3 N3            -1.3370    -0.4125    -0.1793 N.pl3   
   4 C4            -2.0927     0.6783     0.0864 C.2     
   5 N5            -1.2838     1.7030     0.2529 N.2     
   6 C6             1.1796     2.1801     0.2010 C.ar    
   7 C7             1.0322     3.5361     0.4850 C.ar    
   8 C8             2.4538     1.6450     0.0243 C.ar    
   9 C9             3.5623     2.4609     0.1262 C.ar    
  10 C10            3.4100     3.8075     0.4032 C.ar    
  11 C11           -1.8182    -1.7737    -0.4282 C.3     
  12 C12           -1.8552    -2.5386     0.8697 C.2     
  13 N13           -2.2682    -3.8215     0.8843 N.am    
  14 O14           -1.5133    -1.9998     1.9011 O.2     
  15 C15           -2.3120    -4.5861     2.1400 C.3     
  16 C16           -3.6999    -5.2215     2.2748 C.3     
  17 N17           -3.9994    -5.9977     1.0641 N.3     
  18 C18           -4.0602    -5.1329    -0.1218 C.3     
  19 C19           -2.6928    -4.4920    -0.3539 C.3     
  20 C20           -5.1738    -6.7185     1.2140 C.ar    
  21 N21           -5.8689    -6.6496     2.3475 N.ar    
  22 C22           -6.9860    -7.3314     2.4969 C.ar    
  23 N23           -7.4623    -8.1052     1.5425 N.ar    
  24 C24           -6.8263    -8.2274     0.3808 C.ar    
  25 C25           -5.6472    -7.5210     0.1792 C.ar    
  26 C26           -3.5694     0.7120     0.1788 C.ar    
  27 C27           -4.2523     1.9206     0.0414 C.ar    
  28 C28           -5.6292     1.9453     0.1280 C.ar    
  29 C29           -6.3323     0.7748     0.3505 C.ar    
  30 C30           -5.6607    -0.4268     0.4881 C.ar    
  31 C31           -4.2844    -0.4656     0.3978 C.ar    
  32 C32            2.1476     4.3429     0.5848 C.ar    
  33 O33           -7.3244    -9.0258    -0.5947 O.3     
  34 C34           -8.5444    -9.7135    -0.3104 C.3     
  35 C35            4.9413     1.8835    -0.0641 C.3     
  36 C36            1.9895     5.8109     0.8863 C.3     
  37 H37            0.0469     3.9552     0.6266 H       
  38 H38            2.5739     0.5936    -0.1917 H       
  39 H39            4.2801     4.4423     0.4822 H       
  40 H40           -2.8206    -1.7325    -0.8544 H       
  41 H41           -1.1470    -2.2744    -1.1260 H       
  42 H42           -1.5521    -5.3673     2.1196 H       
  43 H43           -2.1318    -3.9179     2.9821 H       
  44 H44           -3.7154    -5.8808     3.1426 H       
  45 H45           -4.4479    -4.4384     2.3991 H       
  46 H46           -4.3369    -5.7279    -0.9921 H       
  47 H47           -4.8031    -4.3510     0.0358 H       
  48 H48           -2.7623    -3.7632    -1.1615 H       
  49 H49           -1.9667    -5.2623    -0.6136 H       
  50 H50           -7.5269    -7.2543     3.4285 H       
  51 H51           -5.1073    -7.5988    -0.7529 H       
  52 H52           -3.7045     2.8350    -0.1320 H       
  53 H53           -6.1590     2.8804     0.0221 H       
  54 H54           -7.4099     0.7994     0.4175 H       
  55 H55           -6.2152    -1.3372     0.6620 H       
  56 H56           -3.7613    -1.4043     0.5049 H       
  57 H57           -8.4031   -10.3614     0.5547 H       
  58 H58           -9.3292    -8.9879    -0.0966 H       
  59 H59           -8.8314   -10.3158    -1.1723 H       
  60 H60            5.2187     1.9447    -1.1164 H       
  61 H61            5.6571     2.4476     0.5338 H       
  62 H62            4.9453     0.8405     0.2526 H       
  63 H63            1.8916     6.3651    -0.0472 H       
  64 H64            1.0976     5.9629     1.4943 H       
  65 H65            2.8648     6.1665     1.4299 H       
@<TRIPOS>BOND
   1    1    2 2
   2    1    6 1
   3    1    5 1
   4    2    3 1
   5    3    4 1
   6    3   11 1
   7    4    5 2
   8    4   26 1
   9    6    7 ar
  10    6    8 ar
  11    7   32 ar
  12    7   37 1
  13    8    9 ar
  14    8   38 1
  15    9   10 ar
  16    9   35 1
  17   10   32 ar
  18   10   39 1
  19   11   12 1
  20   11   40 1
  21   11   41 1
  22   12   13 am
  23   12   14 2
  24   13   15 1
  25   13   19 1
  26   15   16 1
  27   15   42 1
  28   15   43 1
  29   16   17 1
  30   16   44 1
  31   16   45 1
  32   17   18 1
  33   17   20 1
  34   18   19 1
  35   18   46 1
  36   18   47 1
  37   19   48 1
  38   19   49 1
  39   20   21 ar
  40   20   25 ar
  41   21   22 ar
  42   22   23 ar
  43   22   50 1
  44   23   24 ar
  45   24   25 ar
  46   24   33 1
  47   25   51 1
  48   26   27 ar
  49   26   31 ar
  50   27   28 ar
  51   27   52 1
  52   28   29 ar
  53   28   53 1
  54   29   30 ar
  55   29   54 1
  56   30   31 ar
  57   30   55 1
  58   31   56 1
  59   32   36 1
  60   33   34 1
  61   34   57 1
  62   34   58 1
  63   34   59 1
  64   35   60 1
  65   35   61 1
  66   35   62 1
  67   36   63 1
  68   36   64 1
  69   36   65 1

#	End of record

