#	Name: ASD03330032
#	Creating user name:	WinNT
#	Creation time:	15. 06. 2019 20:36

#	Modifying user name:	WinNT
#	Modification time:	15. 06. 2019 20:36

#	Program:	/corina/corina34_cracker 3.40 0067  02.08.2006

@<TRIPOS>MOLECULE
ASD03330032
  42   43    0    0    0
SMALL
NO_CHARGES


@<TRIPOS>ATOM
   1 N1            -0.0258     1.3572     0.0050 N.pl3   
   2 C2            -0.0053    -0.0067     0.0060 C.2     
   3 C3             1.3134    -0.4427    -0.0107 C.2     
   4 C4             2.1459     0.7693    -0.0227 C.ar    
   5 C5             3.5230     0.9941    -0.0412 C.ar    
   6 C6             4.0022     2.2744    -0.0491 C.ar    
   7 C7             3.1270     3.3542    -0.0388 C.ar    
   8 C8             1.7654     3.1544    -0.0201 C.ar    
   9 C9             1.2545     1.8575    -0.0122 C.ar    
  10 C10           -1.1948    -0.8800     0.0228 C.2     
  11 O11           -1.0656    -2.0841    -0.0729 O.2     
  12 O12           -2.4243    -0.3416     0.1442 O.3     
  13 C13            1.7815    -1.8327    -0.0150 C.2     
  14 C14            2.1433    -2.5100     1.2817 C.3     
  15 C15            2.4727    -3.9800     1.0147 C.3     
  16 C16            2.8401    -4.6676     2.3312 C.3     
  17 C17            3.1694    -6.1377     2.0642 C.3     
  18 C18            3.5368    -6.8253     3.3807 C.3     
  19 O19            1.8773    -2.4372    -1.0624 O.2     
  20 Cl20           5.7154     2.5536    -0.0716 Cl      
  21 C21           -3.5484    -1.2607     0.1533 C.3     
  22 C22           -4.8512    -0.4717     0.2977 C.3     
  23 H23           -0.8309     1.8982     0.0112 H       
  24 H24            4.2081     0.1592    -0.0490 H       
  25 H25            3.5195     4.3603    -0.0452 H       
  26 H26            1.0943     4.0006    -0.0115 H       
  27 H27            3.0113    -2.0168     1.7193 H       
  28 H28            1.3024    -2.4456     1.9722 H       
  29 H29            1.6047    -4.4732     0.5771 H       
  30 H30            3.3136    -4.0444     0.3242 H       
  31 H31            3.7081    -4.1745     2.7688 H       
  32 H32            1.9991    -4.6033     3.0217 H       
  33 H33            2.3014    -6.6308     1.6266 H       
  34 H34            4.0103    -6.2020     1.3737 H       
  35 H35            4.4048    -6.3321     3.8183 H       
  36 H36            2.6959    -6.7609     4.0713 H       
  37 H37            3.7714    -7.8726     3.1905 H       
  38 H38           -3.5657    -1.8228    -0.7805 H       
  39 H39           -3.4468    -1.9508     0.9909 H       
  40 H40           -4.8340     0.0904     1.2315 H       
  41 H41           -4.9529     0.2184    -0.5399 H       
  42 H42           -5.6950    -1.1616     0.3045 H       
@<TRIPOS>BOND
   1    1    2 1
   2    1    9 1
   3    1   23 1
   4    2    3 2
   5    2   10 1
   6    3    4 1
   7    3   13 1
   8    4    5 ar
   9    4    9 ar
  10    5    6 ar
  11    5   24 1
  12    6    7 ar
  13    6   20 1
  14    7    8 ar
  15    7   25 1
  16    8    9 ar
  17    8   26 1
  18   10   11 2
  19   10   12 1
  20   12   21 1
  21   13   14 1
  22   13   19 2
  23   14   15 1
  24   14   27 1
  25   14   28 1
  26   15   16 1
  27   15   29 1
  28   15   30 1
  29   16   17 1
  30   16   31 1
  31   16   32 1
  32   17   18 1
  33   17   33 1
  34   17   34 1
  35   18   35 1
  36   18   36 1
  37   18   37 1
  38   21   22 1
  39   21   38 1
  40   21   39 1
  41   22   40 1
  42   22   41 1
  43   22   42 1

#	End of record

