#	Name: ASD01230724
#	Creating user name:	WinNT
#	Creation time:	15. 06. 2019 19:14

#	Modifying user name:	WinNT
#	Modification time:	15. 06. 2019 19:14

#	Program:	/corina/corina34_cracker 3.40 0067  02.08.2006

@<TRIPOS>MOLECULE
ASD01230724
  47   50    0    0    0
SMALL
NO_CHARGES


@<TRIPOS>ATOM
   1 C1            -0.0187     1.5269     0.0104 C.3     
   2 C2             0.0021    -0.0041     0.0020 C.3     
   3 C3            -1.4090    -0.5744    -0.0210 C.3     
   4 C4            -2.4278     0.3518     0.6286 C.3     
   5 N5            -1.8047     1.1961     1.6505 N.pl3   
   6 C6            -0.7253     1.9576     1.2844 C.2     
   7 C7            -2.3028     1.1928     3.0237 C.3     
   8 C8            -2.5699     2.6304     3.4725 C.3     
   9 S9            -1.0683     3.6191     3.2460 S.o2    
  10 N10           -0.3266     2.9907     1.9165 N.am    
  11 C11            1.3909     2.0597    -0.0002 C.ar    
  12 C12            1.8145     2.8697    -1.0378 C.ar    
  13 O13           -1.4015     4.9462     2.8626 O.2     
  14 O14           -0.1502     3.3757     4.3030 O.2     
  15 C15            2.2562     1.7421     1.0307 C.ar    
  16 C16            3.5487     2.2286     1.0241 C.ar    
  17 C17            3.9792     3.0379    -0.0196 C.ar    
  18 C18            3.1056     3.3596    -1.0507 C.ar    
  19 N19            5.2857     3.5318    -0.0294 N.3     
  20 C20            5.5265     4.3610    -1.2192 C.3     
  21 C21            6.2634     2.4367     0.0489 C.3     
  22 C22            7.6765     3.0239     0.0957 C.3     
  23 O23            7.8816     3.8517    -1.0524 O.3     
  24 C24            6.9471     4.9289    -1.1597 C.3     
  25 H25           -0.5615     1.8958    -0.8598 H       
  26 H26            0.5412    -0.3491    -0.8803 H       
  27 H27            0.5163    -0.3592     0.8951 H       
  28 H28           -1.7015    -0.7481    -1.0566 H       
  29 H29           -1.4122    -1.5274     0.5080 H       
  30 H30           -2.8715     0.9875    -0.1375 H       
  31 H31           -3.2116    -0.2482     1.0909 H       
  32 H32           -3.2281     0.6188     3.0732 H       
  33 H33           -1.5588     0.7399     3.6790 H       
  34 H34           -3.3776     3.0537     2.8754 H       
  35 H35           -2.8538     2.6361     4.5249 H       
  36 H36            1.1349     3.1191    -1.8393 H       
  37 H37            1.9208     1.1131     1.8420 H       
  38 H38            4.2239     1.9805     1.8297 H       
  39 H39            3.4372     3.9883    -1.8638 H       
  40 H40            5.4154     3.7517    -2.1161 H       
  41 H41            4.8078     5.1802    -1.2435 H       
  42 H42            6.0826     1.8511     0.9503 H       
  43 H43            6.1641     1.7966    -0.8277 H       
  44 H44            7.7929     3.6208     1.0003 H       
  45 H45            8.4070     2.2149     0.0962 H       
  46 H46            7.1499     5.4977    -2.0672 H       
  47 H47            7.0422     5.5812    -0.2917 H       
@<TRIPOS>BOND
   1    1    2 1
   2    1   11 1
   3    1    6 1
   4    1   25 1
   5    2    3 1
   6    2   26 1
   7    2   27 1
   8    3    4 1
   9    3   28 1
  10    3   29 1
  11    4    5 1
  12    4   30 1
  13    4   31 1
  14    5    6 1
  15    5    7 1
  16    6   10 2
  17    7    8 1
  18    7   32 1
  19    7   33 1
  20    8    9 1
  21    8   34 1
  22    8   35 1
  23    9   10 am
  24    9   13 2
  25    9   14 2
  26   11   12 ar
  27   11   15 ar
  28   12   18 ar
  29   12   36 1
  30   15   16 ar
  31   15   37 1
  32   16   17 ar
  33   16   38 1
  34   17   18 ar
  35   17   19 1
  36   18   39 1
  37   19   20 1
  38   19   21 1
  39   20   24 1
  40   20   40 1
  41   20   41 1
  42   21   22 1
  43   21   42 1
  44   21   43 1
  45   22   23 1
  46   22   44 1
  47   22   45 1
  48   23   24 1
  49   24   46 1
  50   24   47 1

#	End of record

