#	Name: ASD05060109
#	Creating user name:	WinNT
#	Creation time:	15. 06. 2019 20:56

#	Modifying user name:	WinNT
#	Modification time:	15. 06. 2019 20:56

#	Program:	/corina/corina34_cracker 3.40 0067  02.08.2006

@<TRIPOS>MOLECULE
ASD05060109
  44   46    0    0    0
SMALL
NO_CHARGES


@<TRIPOS>ATOM
   1 C1            -0.0167     1.3795     0.0096 C.ar    
   2 C2             0.0021    -0.0041     0.0020 C.ar    
   3 C3             1.2096    -0.6788    -0.0131 C.ar    
   4 C4             2.3967     0.0294    -0.0207 C.ar    
   5 C5             2.3773     1.4115    -0.0126 C.ar    
   6 C6             1.1707     2.0864     0.0021 C.ar    
   7 C7             1.1505     3.5933     0.0104 C.3     
   8 N8             1.1571     4.0741     1.3942 N.pl3   
   9 C9             2.4289     4.3317     2.0741 C.3     
  10 C10           -0.0517     4.2875     2.0667 C.ar    
  11 C11            2.8425     5.7620     1.8410 C.ar    
  12 C12            2.4382     6.7503     2.7193 C.ar    
  13 C13            2.8172     8.0623     2.5062 C.ar    
  14 C14            3.6010     8.3871     1.4149 C.ar    
  15 C15            4.0062     7.3987     0.5360 C.ar    
  16 C16            3.6305     6.0846     0.7526 C.ar    
  17 C17           -1.2587     4.0424     1.4195 C.ar    
  18 C18           -2.4555     4.2503     2.0744 C.ar    
  19 C19           -2.4634     4.7057     3.3843 C.ar    
  20 C20           -1.2519     4.9545     4.0433 C.ar    
  21 C21           -0.0435     4.7363     3.3757 C.ar    
  22 O22           -3.6416     4.9104     4.0263 O.3     
  23 C23           -1.2519     5.4388     5.4356 C.2     
  24 O24           -2.3042     5.6232     6.0146 O.2     
  25 O25           -0.0851     5.6769     6.0661 O.3     
  26 Cl26          -1.4892    -0.8928     0.0121 Cl      
  27 Cl27           4.9906     7.8057    -0.8347 Cl      
  28 H28           -0.9592     1.9069     0.0169 H       
  29 H29            1.2248    -1.7587    -0.0187 H       
  30 H30            3.3395    -0.4972    -0.0325 H       
  31 H31            3.3051     1.9644    -0.0181 H       
  32 H32            2.0305     3.9713    -0.5099 H       
  33 H33            0.2508     3.9473    -0.4930 H       
  34 H34            2.3111     4.1572     3.1436 H       
  35 H35            3.1940     3.6633     1.6790 H       
  36 H36            1.8258     6.4970     3.5721 H       
  37 H37            2.5005     8.8340     3.1923 H       
  38 H38            3.8968     9.4123     1.2483 H       
  39 H39            3.9497     5.3119     0.0688 H       
  40 H40           -1.2590     3.6879     0.3993 H       
  41 H41           -3.3885     4.0581     1.5654 H       
  42 H42            0.8941     4.9217     3.8786 H       
  43 H43           -3.9699     4.1354     4.5025 H       
  44 H44           -0.1358     5.9934     6.9785 H       
@<TRIPOS>BOND
   1    1    2 ar
   2    1    6 ar
   3    1   28 1
   4    2    3 ar
   5    2   26 1
   6    3    4 ar
   7    3   29 1
   8    4    5 ar
   9    4   30 1
  10    5    6 ar
  11    5   31 1
  12    6    7 1
  13    7    8 1
  14    7   32 1
  15    7   33 1
  16    8    9 1
  17    8   10 1
  18    9   11 1
  19    9   34 1
  20    9   35 1
  21   10   17 ar
  22   10   21 ar
  23   11   12 ar
  24   11   16 ar
  25   12   13 ar
  26   12   36 1
  27   13   14 ar
  28   13   37 1
  29   14   15 ar
  30   14   38 1
  31   15   16 ar
  32   15   27 1
  33   16   39 1
  34   17   18 ar
  35   17   40 1
  36   18   19 ar
  37   18   41 1
  38   19   20 ar
  39   19   22 1
  40   20   21 ar
  41   20   23 1
  42   21   42 1
  43   22   43 1
  44   23   24 2
  45   23   25 1
  46   25   44 1

#	End of record

