#	Name: ASD01883870
#	Creating user name:	WinNT
#	Creation time:	15. 06. 2019 19:47

#	Modifying user name:	WinNT
#	Modification time:	15. 06. 2019 19:47

#	Program:	/corina/corina34_cracker 3.40 0067  02.08.2006

@<TRIPOS>MOLECULE
ASD01883870
  48   52    0    0    0
SMALL
NO_CHARGES


@<TRIPOS>ATOM
   1 O1            -0.0279     1.3408     0.0385 O.3     
   2 C2             0.0014    -0.0162     0.0222 C.2     
   3 C3             1.1957    -2.0822    -0.1266 C.2     
   4 C4             1.1900    -0.6762    -0.1124 C.2     
   5 C5            -1.1943    -0.7530     0.1501 C.2     
   6 C6            -1.1676    -2.1006     0.1346 C.2     
   7 N7             1.6416    -4.1662    -0.1957 N.2     
   8 N8             2.1554    -2.9873    -0.2392 N.2     
   9 N9             0.0129    -2.7699    -0.0045 N.pl3   
  10 C10            0.3444    -4.0914    -0.0536 C.2     
  11 C11           -0.6105    -5.2537     0.0386 C.3     
  12 C12           -0.7779    -5.6612     1.5038 C.3     
  13 C13           -1.8021    -6.7527     1.8209 C.3     
  14 C14           -0.3056    -7.0597     1.9065 C.3     
  15 C15            2.4791     0.0932    -0.2446 C.3     
  16 F16            2.1989     1.4610    -0.3321 F       
  17 F17            3.2827    -0.1475     0.8750 F       
  18 F18            3.1523    -0.3197    -1.3993 F       
  19 C19           -0.6943     1.9884    -1.0472 C.3     
  20 C20           -0.7320     3.4971    -0.7954 C.3     
  21 C21            0.0196     4.3964    -1.7790 C.3     
  22 C22           -1.5100     4.3601    -1.7908 C.3     
  23 C23           -2.1805     3.6592    -2.9441 C.ar    
  24 C24           -3.5509     3.7467    -3.1035 C.ar    
  25 C25           -4.1664     3.1040    -4.1610 C.ar    
  26 C26           -3.4107     2.3730    -5.0603 C.ar    
  27 C27           -2.0392     2.2857    -4.9003 C.ar    
  28 C28           -1.4242     2.9335    -3.8456 C.ar    
  29 Cl29          -4.1831     1.5650    -6.3885 Cl      
  30 H30           -2.1356    -0.2353     0.2612 H       
  31 H31           -2.0889    -2.6554     0.2336 H       
  32 H32           -1.5780    -4.9624    -0.3703 H       
  33 H33           -0.2144    -6.0953    -0.5296 H       
  34 H34           -0.6553    -4.8592     2.2318 H       
  35 H35           -2.3531    -6.6690     2.7577 H       
  36 H36           -2.3566    -7.1805     0.9857 H       
  37 H37            0.1243    -7.6894     1.1276 H       
  38 H38            0.1279    -7.1779     2.8996 H       
  39 H39           -0.1575     1.7880    -1.9744 H       
  40 H40           -1.7126     1.6078    -1.1273 H       
  41 H41           -0.7470     3.7987     0.2519 H       
  42 H42            0.4987     5.2898    -1.3788 H       
  43 H43            0.5409     3.9132    -2.6053 H       
  44 H44           -2.0370     5.2298    -1.3984 H       
  45 H45           -4.1407     4.3171    -2.4012 H       
  46 H46           -5.2370     3.1722    -4.2852 H       
  47 H47           -1.4488     1.7152    -5.6020 H       
  48 H48           -0.3531     2.8691    -3.7231 H       
@<TRIPOS>BOND
   1    1    2 1
   2    1   19 1
   3    2    5 1
   4    2    4 2
   5    3    4 1
   6    3    9 1
   7    3    8 2
   8    4   15 1
   9    5    6 2
  10    5   30 1
  11    6    9 1
  12    6   31 1
  13    7    8 1
  14    7   10 2
  15    9   10 1
  16   10   11 1
  17   11   12 1
  18   11   32 1
  19   11   33 1
  20   12   13 1
  21   12   14 1
  22   12   34 1
  23   13   14 1
  24   13   35 1
  25   13   36 1
  26   14   37 1
  27   14   38 1
  28   15   16 1
  29   15   17 1
  30   15   18 1
  31   19   20 1
  32   19   39 1
  33   19   40 1
  34   20   21 1
  35   20   22 1
  36   20   41 1
  37   21   22 1
  38   21   42 1
  39   21   43 1
  40   22   23 1
  41   22   44 1
  42   23   24 ar
  43   23   28 ar
  44   24   25 ar
  45   24   45 1
  46   25   26 ar
  47   25   46 1
  48   26   27 ar
  49   26   29 1
  50   27   28 ar
  51   27   47 1
  52   28   48 1

#	End of record

