#	Name: ASD00843515
#	Creating user name:	WinNT
#	Creation time:	15. 06. 2019 18:47

#	Modifying user name:	WinNT
#	Modification time:	15. 06. 2019 18:47

#	Program:	/corina/corina34_cracker 3.40 0067  02.08.2006

@<TRIPOS>MOLECULE
ASD00843515
  85   90    0    0    0
SMALL
NO_CHARGES


@<TRIPOS>ATOM
   1 F1             5.5724    -2.3915    -2.0688 F       
   2 N2             0.7611     1.0361    -0.2418 N.ar    
   3 C3             0.9583    -0.2417    -0.5196 C.ar    
   4 C4             0.8643    -1.2053     0.4767 C.ar    
   5 C5             0.5608    -0.8112     1.7679 C.ar    
   6 C6             0.3610     0.5397     2.0183 C.ar    
   7 C7             0.4703     1.4424     0.9796 C.ar    
   8 C8             1.0894    -2.6603     0.1554 C.3     
   9 C9             0.7943    -3.5220     1.3643 C.2     
  10 C10            0.2220    -3.0862    -1.0309 C.3     
  11 C11           -1.2210    -2.7644    -0.7391 C.2     
  12 N12           -2.1851    -3.1543    -1.5965 N.am    
  13 O13           -1.5149    -2.1547     0.2673 O.2     
  14 C14           -3.5855    -2.7550    -1.3901 C.3     
  15 C15           -4.1152    -2.1462    -2.6928 C.3     
  16 N16           -3.8948    -3.0908    -3.7960 N.3     
  17 C17           -2.4620    -3.3329    -4.0120 C.3     
  18 C18           -1.8636    -3.9852    -2.7667 C.3     
  19 C19           -4.5409    -2.6205    -5.0287 C.3     
  20 C20           -4.1870    -3.5621    -6.1832 C.3     
  21 C21           -4.9114    -3.1022    -7.4504 C.3     
  22 N22           -6.3612    -3.1086    -7.2166 N.3     
  23 C23           -6.7302    -2.1762    -6.1438 C.3     
  24 C24           -6.0600    -2.6085    -4.8376 C.3     
  25 H25           -6.8652    -2.9008    -8.0656 H       
  26 O26           -0.2712    -3.6203     1.9356 O.2     
  27 N27            1.9331    -4.1579     1.6859 N.am    
  28 C28            2.5508    -2.9189    -0.1337 C.ar    
  29 C29            2.9841    -3.8269     0.8271 C.ar    
  30 C30            3.4099    -2.4395    -1.0979 C.ar    
  31 C31            4.7283    -2.8597    -1.1235 C.ar    
  32 C32            5.1817    -3.7721    -0.1654 C.ar    
  33 C33            4.3066    -4.2539     0.8078 C.ar    
  34 C34            1.6944    -6.8205     2.3402 C.ar    
  35 C35            0.4162    -7.1041     1.8823 C.ar    
  36 C36            2.6707    -7.7977     2.3092 C.ar    
  37 C37            2.3745    -9.0571     1.8220 C.ar    
  38 C38            1.1009    -9.3423     1.3648 C.ar    
  39 C39            0.1213    -8.3690     1.3941 C.ar    
  40 H40            0.8721   -10.3269     0.9846 H       
  41 O41           -0.5460    -6.1447     1.9121 O.3     
  42 C42           -1.8393    -6.5076     1.4245 C.3     
  43 C43            6.5442    -4.2124    -0.1842 C.1     
  44 N44            7.6250    -4.5617    -0.1992 N.1     
  45 O45            1.2549    -0.6152    -1.7898 O.3     
  46 C46            1.2855     0.4158    -2.7788 C.3     
  47 C47            1.7359    -0.1742    -4.1167 C.3     
  48 F48            2.9759    -0.8015    -3.9560 F       
  49 F49            0.7929    -1.1103    -4.5546 F       
  50 S50            2.0747    -5.2133     2.9542 S.o2    
  51 O51            3.4510    -5.2340     3.3072 O.2     
  52 O52            1.0420    -4.8793     3.8713 O.2     
  53 H53            0.4808    -1.5379     2.5628 H       
  54 H54            0.1224     0.8806     3.0148 H       
  55 H55            0.3162     2.4944     1.1691 H       
  56 H56            0.5403    -2.5498    -1.9248 H       
  57 H57            0.3295    -4.1587    -1.1931 H       
  58 H58           -4.1804    -3.6294    -1.1260 H       
  59 H59           -3.6415    -2.0157    -0.5911 H       
  60 H60           -5.1820    -1.9458    -2.5932 H       
  61 H61           -3.5876    -1.2152    -2.9001 H       
  62 H62           -2.3299    -3.9931    -4.8692 H       
  63 H63           -1.9575    -2.3854    -4.2010 H       
  64 H64           -0.7820    -4.0618    -2.8774 H       
  65 H65           -2.2920    -4.9784    -2.6319 H       
  66 H66           -4.1939    -1.6135    -5.2605 H       
  67 H67           -3.1103    -3.5422    -6.3520 H       
  68 H68           -4.4982    -4.5765    -5.9339 H       
  69 H69           -4.5894    -2.0929    -7.7068 H       
  70 H70           -4.6729    -3.7789    -8.2709 H       
  71 H71           -6.3996    -1.1713    -6.4064 H       
  72 H72           -7.8126    -2.1804    -6.0154 H       
  73 H73           -6.4007    -3.6079    -4.5671 H       
  74 H74           -6.3216    -1.9073    -4.0451 H       
  75 H75            3.0540    -1.7351    -1.8351 H       
  76 H76            4.6570    -4.9585     1.5474 H       
  77 H77            3.6661    -7.5774     2.6657 H       
  78 H78            3.1392    -9.8194     1.7979 H       
  79 H79           -0.8733    -8.5924     1.0376 H       
  80 H80           -2.5107    -5.6527     1.5045 H       
  81 H81           -1.7617    -6.8123     0.3808 H       
  82 H82           -2.2318    -7.3345     2.0162 H       
  83 H83            0.2893     0.8445    -2.8877 H       
  84 H84            1.9843     1.1937    -2.4711 H       
  85 H85            1.8252     0.6237    -4.8539 H       
@<TRIPOS>BOND
   1    1   31 1
   2    2    3 ar
   3    2    7 ar
   4    3    4 ar
   5    3   45 1
   6    4    5 ar
   7    4    8 1
   8    5    6 ar
   9    5   53 1
  10    6    7 ar
  11    6   54 1
  12    7   55 1
  13    8    9 1
  14    8   10 1
  15    8   28 1
  16    9   26 2
  17    9   27 am
  18   10   11 1
  19   10   56 1
  20   10   57 1
  21   11   12 am
  22   11   13 2
  23   12   14 1
  24   12   18 1
  25   14   15 1
  26   14   58 1
  27   14   59 1
  28   15   16 1
  29   15   60 1
  30   15   61 1
  31   16   17 1
  32   16   19 1
  33   17   18 1
  34   17   62 1
  35   17   63 1
  36   18   64 1
  37   18   65 1
  38   19   20 1
  39   19   24 1
  40   19   66 1
  41   20   21 1
  42   20   67 1
  43   20   68 1
  44   21   22 1
  45   21   69 1
  46   21   70 1
  47   22   23 1
  48   22   25 1
  49   23   24 1
  50   23   71 1
  51   23   72 1
  52   24   73 1
  53   24   74 1
  54   27   50 am
  55   27   29 1
  56   28   29 ar
  57   28   30 ar
  58   29   33 ar
  59   30   31 ar
  60   30   75 1
  61   31   32 ar
  62   32   33 ar
  63   32   43 1
  64   33   76 1
  65   34   35 ar
  66   34   36 ar
  67   34   50 1
  68   35   41 1
  69   35   39 ar
  70   36   37 ar
  71   36   77 1
  72   37   38 ar
  73   37   78 1
  74   38   39 ar
  75   38   40 1
  76   39   79 1
  77   41   42 1
  78   42   80 1
  79   42   81 1
  80   42   82 1
  81   43   44 3
  82   45   46 1
  83   46   47 1
  84   46   83 1
  85   46   84 1
  86   47   48 1
  87   47   49 1
  88   47   85 1
  89   50   51 2
  90   50   52 2

#	End of record

