#	Name: ASD01883515
#	Creating user name:	WinNT
#	Creation time:	15. 06. 2019 19:46

#	Modifying user name:	WinNT
#	Modification time:	15. 06. 2019 19:46

#	Program:	/corina/corina34_cracker 3.40 0067  02.08.2006

@<TRIPOS>MOLECULE
ASD01883515
  48   50    0    0    0
SMALL
NO_CHARGES


@<TRIPOS>ATOM
   1 N1            -0.0162     1.3417     0.0094 N.am    
   2 C2             0.0021    -0.0041     0.0020 C.2     
   3 C3            -1.2159    -0.7274     0.0098 C.2     
   4 C4            -2.4263    -0.0109     0.0252 C.2     
   5 C5            -2.3786     1.3975     0.0323 C.2     
   6 C6            -1.1852     2.0327     0.0299 C.2     
   7 O7             1.0657    -0.6000    -0.0117 O.2     
   8 C8            -1.2149    -2.1593     0.0016 C.1     
   9 N9            -1.2141    -3.2953    -0.0049 N.1     
  10 C10            1.2513     2.0763     0.0013 C.3     
  11 C11            1.6788     2.3398    -1.4440 C.3     
  12 C12            3.0025     3.1070    -1.4525 C.3     
  13 C13            4.1050     2.2283    -0.8581 C.3     
  14 C14           -3.7215    -0.7206     0.0332 C.ar    
  15 C15            3.3670     3.4792    -2.8911 C.3     
  16 C16           -4.0810    -1.5116     1.1270 C.ar    
  17 C17           -5.2880    -2.1729     1.1302 C.ar    
  18 C18           -6.1583    -2.0598     0.0468 C.ar    
  19 C19           -5.8051    -1.2683    -1.0439 C.ar    
  20 C20           -4.5946    -0.5991    -1.0503 C.ar    
  21 N21           -7.3649    -2.7564     0.0891 N.3     
  22 C22           -8.3572    -2.2029    -0.8393 C.3     
  23 C23           -7.7097    -2.0644    -2.2232 C.3     
  24 O24           -6.6354    -1.1248    -2.1138 O.3     
  25 C25           -7.8955    -2.8074     1.4579 C.3     
  26 H26           -3.2949     1.9690     0.0437 H       
  27 H27           -1.1610     3.1124     0.0358 H       
  28 H28            1.1243     3.0257     0.5214 H       
  29 H29            2.0168     1.4857     0.5046 H       
  30 H30            1.8057     1.3903    -1.9642 H       
  31 H31            0.9133     2.9303    -1.9474 H       
  32 H32            2.9004     4.0143    -0.8572 H       
  33 H33            3.8454     1.9632     0.1668 H       
  34 H34            4.2071     1.3210    -1.4534 H       
  35 H35            5.0481     2.7749    -0.8642 H       
  36 H36            2.5815     4.1051    -3.3146 H       
  37 H37            4.3100     4.0258    -2.8972 H       
  38 H38            3.4691     2.5718    -3.4864 H       
  39 H39           -3.4120    -1.6045     1.9696 H       
  40 H40           -5.5627    -2.7838     1.9774 H       
  41 H41           -4.3207     0.0119    -1.8977 H       
  42 H42           -9.2140    -2.8737    -0.9017 H       
  43 H43           -8.6811    -1.2234    -0.4873 H       
  44 H44           -7.3232    -3.0304    -2.5480 H       
  45 H45           -8.4459    -1.7010    -2.9402 H       
  46 H46           -7.9985    -1.7939     1.8457 H       
  47 H47           -8.8705    -3.2948     1.4517 H       
  48 H48           -7.2115    -3.3713     2.0921 H       
@<TRIPOS>BOND
   1    1    2 am
   2    1   10 1
   3    1    6 1
   4    2    3 1
   5    2    7 2
   6    3    4 2
   7    3    8 1
   8    4    5 1
   9    4   14 1
  10    5    6 2
  11    5   26 1
  12    6   27 1
  13    8    9 3
  14   10   11 1
  15   10   28 1
  16   10   29 1
  17   11   12 1
  18   11   30 1
  19   11   31 1
  20   12   13 1
  21   12   15 1
  22   12   32 1
  23   13   33 1
  24   13   34 1
  25   13   35 1
  26   14   16 ar
  27   14   20 ar
  28   15   36 1
  29   15   37 1
  30   15   38 1
  31   16   17 ar
  32   16   39 1
  33   17   18 ar
  34   17   40 1
  35   18   19 ar
  36   18   21 1
  37   19   20 ar
  38   19   24 1
  39   20   41 1
  40   21   22 1
  41   21   25 1
  42   22   23 1
  43   22   42 1
  44   22   43 1
  45   23   24 1
  46   23   44 1
  47   23   45 1
  48   25   46 1
  49   25   47 1
  50   25   48 1

#	End of record

