#	Name: ASD01911734
#	Creating user name:	WinNT
#	Creation time:	15. 06. 2019 19:58

#	Modifying user name:	WinNT
#	Modification time:	15. 06. 2019 19:58

#	Program:	/corina/corina34_cracker 3.40 0067  02.08.2006

@<TRIPOS>MOLECULE
ASD01911734
  35   37    0    0    0
SMALL
NO_CHARGES


@<TRIPOS>ATOM
   1 N1             0.0316     1.1536    -0.6874 N.am    
   2 C2             0.0021    -0.0041     0.0020 C.2     
   3 C3            -1.2507    -0.7543     0.1205 C.2     
   4 C4            -1.3862    -2.1135     0.0310 C.2     
   5 S5            -2.8471    -0.0659     0.4110 S.3     
   6 C6            -3.5482    -1.6812     0.3759 C.2     
   7 N7            -2.6015    -2.5625     0.1683 N.2     
   8 C8            -4.9366    -1.9844     0.5521 C.1     
   9 C9            -6.0749    -2.2330     0.6965 C.1     
  10 C10           -7.4633    -2.5362     0.8726 C.ar    
  11 C11           -7.9240    -3.8595     0.8274 C.ar    
  12 O12            1.0162    -0.4263     0.5262 O.2     
  13 C13           -1.1498     1.6126    -1.4307 C.3     
  14 C14           -1.4877     3.0394    -0.9871 C.3     
  15 C15           -0.2535     3.9282    -1.1575 C.3     
  16 C16            0.8809     3.4036    -0.2742 C.3     
  17 C17            1.2438     1.9837    -0.7051 C.3     
  18 N18           -9.2135    -4.0925     0.9956 N.ar    
  19 C19          -10.0609    -3.1036     1.2031 C.ar    
  20 N20           -9.6718    -1.8446     1.2528 N.ar    
  21 C21           -8.4004    -1.5189     1.1011 C.ar    
  22 H22           -0.5445    -2.7679    -0.1417 H       
  23 H23           -7.2363    -4.6748     0.6575 H       
  24 H24           -0.9355     1.6033    -2.4994 H       
  25 H25           -1.9928     0.9549    -1.2192 H       
  26 H26           -2.3024     3.4272    -1.5986 H       
  27 H27           -1.7895     3.0330     0.0603 H       
  28 H28            0.0626     3.9145    -2.2006 H       
  29 H29           -0.4983     4.9495    -0.8658 H       
  30 H30            1.7519     4.0505    -0.3783 H       
  31 H31            0.5567     3.3937     0.7665 H       
  32 H32            1.9813     1.5703    -0.0171 H       
  33 H33            1.6531     2.0017    -1.7152 H       
  34 H34          -11.1080    -3.3324     1.3363 H       
  35 H35           -8.0896    -0.4855     1.1435 H       
@<TRIPOS>BOND
   1    1    2 am
   2    1   13 1
   3    1   17 1
   4    2    3 1
   5    2   12 2
   6    3    4 2
   7    3    5 1
   8    4    7 1
   9    4   22 1
  10    5    6 1
  11    6    7 2
  12    6    8 1
  13    8    9 3
  14    9   10 1
  15   10   11 ar
  16   10   21 ar
  17   11   18 ar
  18   11   23 1
  19   13   14 1
  20   13   24 1
  21   13   25 1
  22   14   15 1
  23   14   26 1
  24   14   27 1
  25   15   16 1
  26   15   28 1
  27   15   29 1
  28   16   17 1
  29   16   30 1
  30   16   31 1
  31   17   32 1
  32   17   33 1
  33   18   19 ar
  34   19   20 ar
  35   19   34 1
  36   20   21 ar
  37   21   35 1

#	End of record

