#	Name: ASD00431092
#	Creating user name:	WinNT
#	Creation time:	15. 06. 2019 18:35

#	Modifying user name:	WinNT
#	Modification time:	15. 06. 2019 18:35

#	Program:	/corina/corina34_cracker 3.40 0067  02.08.2006

@<TRIPOS>MOLECULE
ASD00431092
  58   62    0    0    0
SMALL
NO_CHARGES


@<TRIPOS>ATOM
   1 C1            -0.0521     1.3536     1.0568 C.2     
   2 N2            -0.3016     0.4522     0.0899 N.am    
   3 C3             0.6432     0.4947    -0.8668 C.2     
   4 C4             1.6318     1.5329    -0.5065 C.ar    
   5 C5             2.7912     2.0113    -1.0956 C.ar    
   6 C6             3.5085     3.0239    -0.4780 C.ar    
   7 C7             3.0752     3.5590     0.7205 C.ar    
   8 C8             1.9174     3.0904     1.3215 C.ar    
   9 C9             1.1901     2.0785     0.7157 C.ar    
  10 O10           -0.7358     1.5436     2.0424 O.2     
  11 O11            0.6784    -0.2034    -1.8599 O.2     
  12 C12           -1.4508    -0.4565     0.0802 C.3     
  13 C13           -1.4754    -1.2336    -1.2375 C.3     
  14 C14           -0.1331    -2.0488     1.5016 C.ar    
  15 C15           -1.3369    -1.4226     1.2312 C.ar    
  16 C16           -2.4348    -1.6923     2.0286 C.ar    
  17 C17           -2.2805    -2.5965     3.0864 C.ar    
  18 C18           -1.0324    -3.1860     3.2926 C.ar    
  19 N19           -0.0168    -2.8963     2.5057 N.ar    
  20 S20           -5.0502    -2.2650     3.8424 S.3     
  21 C21           -5.5400    -3.1885     5.1949 C.2     
  22 N22           -4.5461    -3.8888     5.6456 N.2     
  23 C23           -3.3959    -3.7718     5.0161 C.2     
  24 C24           -3.4201    -2.9208     3.9700 C.2     
  25 O25           -6.7884    -3.1888     5.7209 O.3     
  26 C26           -7.0534    -4.0542     6.7355 C.ar    
  27 C27           -6.5829    -3.7898     8.0135 C.ar    
  28 C28           -6.8521    -4.6690     9.0440 C.ar    
  29 C29           -7.5929    -5.8164     8.8012 C.ar    
  30 C30           -8.0633    -6.0808     7.5234 C.ar    
  31 C31           -7.7991    -5.1988     6.4939 C.ar    
  32 O32           -7.8575    -6.6821     9.8158 O.3     
  33 C33           -7.4014    -6.3134    11.1189 C.3     
  34 C34           -8.4129    -5.3635    11.7635 C.3     
  35 C35           -7.2575    -7.5679    11.9828 C.3     
  36 H36            3.1346     1.5967    -2.0319 H       
  37 H37            4.4124     3.3971    -0.9363 H       
  38 H38            3.6430     4.3474     1.1922 H       
  39 H39            1.5838     3.5120     2.2582 H       
  40 H40           -2.3706     0.1199     0.1794 H       
  41 H41           -0.5556    -1.8100    -1.3366 H       
  42 H42           -2.3303    -1.9097    -1.2446 H       
  43 H43           -1.5577    -0.5348    -2.0699 H       
  44 H44            0.7243    -1.8434     0.8779 H       
  45 H45           -3.3862    -1.2173     1.8402 H       
  46 H46           -0.8982    -3.8854     4.1045 H       
  47 H47           -2.5083    -4.3111     5.3123 H       
  48 H48           -6.0058    -2.8967     8.2025 H       
  49 H49           -6.4856    -4.4634    10.0389 H       
  50 H50           -8.6398    -6.9743     7.3344 H       
  51 H51           -8.1692    -5.4025     5.5000 H       
  52 H52           -6.4353    -5.8151    11.0382 H       
  53 H53           -8.5154    -4.4698    11.1480 H       
  54 H54           -9.3790    -5.8618    11.8442 H       
  55 H55           -8.0650    -5.0823    12.7574 H       
  56 H56           -6.5369    -8.2446    11.5236 H       
  57 H57           -6.9096    -7.2867    12.9768 H       
  58 H58           -8.2236    -8.0662    12.0635 H       
@<TRIPOS>BOND
   1    1    2 am
   2    1    9 1
   3    1   10 2
   4    2    3 am
   5    2   12 1
   6    3    4 1
   7    3   11 2
   8    4    5 ar
   9    4    9 ar
  10    5    6 ar
  11    5   36 1
  12    6    7 ar
  13    6   37 1
  14    7    8 ar
  15    7   38 1
  16    8    9 ar
  17    8   39 1
  18   12   13 1
  19   12   15 1
  20   12   40 1
  21   13   41 1
  22   13   42 1
  23   13   43 1
  24   14   15 ar
  25   14   19 ar
  26   14   44 1
  27   15   16 ar
  28   16   17 ar
  29   16   45 1
  30   17   18 ar
  31   17   24 1
  32   18   19 ar
  33   18   46 1
  34   20   21 1
  35   20   24 1
  36   21   22 2
  37   21   25 1
  38   22   23 1
  39   23   24 2
  40   23   47 1
  41   25   26 1
  42   26   27 ar
  43   26   31 ar
  44   27   28 ar
  45   27   48 1
  46   28   29 ar
  47   28   49 1
  48   29   30 ar
  49   29   32 1
  50   30   31 ar
  51   30   50 1
  52   31   51 1
  53   32   33 1
  54   33   34 1
  55   33   35 1
  56   33   52 1
  57   34   53 1
  58   34   54 1
  59   34   55 1
  60   35   56 1
  61   35   57 1
  62   35   58 1

#	End of record

