#	Name: ASD05730066
#	Creating user name:	WinNT
#	Creation time:	15. 06. 2019 21:02

#	Modifying user name:	WinNT
#	Modification time:	15. 06. 2019 21:02

#	Program:	/corina/corina34_cracker 3.40 0067  02.08.2006

@<TRIPOS>MOLECULE
ASD05730066
  78   82    0    0    0
SMALL
NO_CHARGES


@<TRIPOS>ATOM
   1 N1             0.9062     1.2511     0.4047 N.3     
   2 C2             0.6620    -0.1230     0.3025 C.ar    
   3 C3             1.5682    -0.9421    -0.3577 C.ar    
   4 C4             1.3271    -2.2981    -0.4585 C.ar    
   5 C5             0.1783    -2.8423     0.0999 C.ar    
   6 C6            -0.7285    -2.0230     0.7599 C.ar    
   7 C7            -0.4842    -0.6684     0.8665 C.ar    
   8 N8            -0.0665    -4.2176    -0.0028 N.pl3   
   9 C9             0.3022    -4.9013    -1.1449 C.ar    
  10 N10            0.1663    -6.2185    -1.1718 N.ar    
  11 C11            0.5097    -6.9103    -2.2523 C.ar    
  12 C12            1.0211    -6.2141    -3.3690 C.ar    
  13 C13            1.1456    -4.8189    -3.2907 C.ar    
  14 N14            0.7749    -4.2130    -2.1783 N.ar    
  15 N15            0.3728    -8.2750    -2.2887 N.am    
  16 C16            0.7229    -8.9717    -3.3870 C.2     
  17 C17            1.2566    -8.2803    -4.5625 C.2     
  18 C18            1.3960    -6.9185    -4.5358 C.2     
  19 C19           -0.1592    -8.9817    -1.1208 C.3     
  20 O20            0.5953   -10.1830    -3.4024 O.2     
  21 C21            1.6414    -9.0475    -5.7701 C.ar    
  22 C22            0.7063    -9.2816    -6.7791 C.ar    
  23 C23            0.8780     1.8908    -0.9180 C.3     
  24 C24            2.9422    -9.5342    -5.9062 C.ar    
  25 C25            3.2945   -10.2482    -7.0347 C.ar    
  26 C26            2.3613   -10.4812    -8.0288 C.ar    
  27 C27            1.0717    -9.9970    -7.9025 C.ar    
  28 C28            1.0697     3.4006    -0.7558 C.3     
  29 N29            2.3466     3.6594    -0.0760 N.3     
  30 C30            2.3749     3.0197     1.2467 C.3     
  31 C31            2.1832     1.5099     1.0845 C.3     
  32 Cl32          -0.9128    -8.6752    -6.6223 Cl      
  33 Cl33           4.1150    -9.2423    -4.6600 Cl      
  34 S34            2.8192   -11.3926    -9.4656 S.o2    
  35 C35            2.4623   -13.1193    -9.0392 C.3     
  36 C36            2.8222   -14.0214   -10.2214 C.3     
  37 N37            2.5331   -15.4197    -9.8761 N.3     
  38 C38            1.0900   -15.6313    -9.7017 C.3     
  39 C39            3.0813   -16.3353   -10.8856 C.3     
  40 O40            1.9271   -10.9327   -10.4714 O.2     
  41 O41            4.2206   -11.1866    -9.5793 O.2     
  42 C42           -1.4678     0.2205     1.5831 C.3     
  43 F43           -2.5831    -0.5321     1.9665 F       
  44 F44           -0.8609     0.7668     2.7191 F       
  45 F45           -1.8724     1.2519     0.7289 F       
  46 C46           -1.6818    -9.0797    -1.2339 C.3     
  47 F47           -2.0189    -9.7808    -2.3967 F       
  48 F48           -2.1898    -9.7546    -0.1187 F       
  49 F49           -2.2291    -7.7934    -1.2898 F       
  50 H50            2.4615    -0.5187    -0.7926 H       
  51 H51            2.0320    -2.9352    -0.9720 H       
  52 H52           -1.6224    -2.4463     1.1936 H       
  53 H53           -0.4949    -4.6899     0.7282 H       
  54 H54            1.5330    -4.2522    -4.1245 H       
  55 H55            1.7878    -6.3907    -5.3926 H       
  56 H56            0.2672    -9.9839    -1.0773 H       
  57 H57            0.1034    -8.4355    -0.2149 H       
  58 H58            1.6807     1.4865    -1.5347 H       
  59 H59           -0.0819     1.6954    -1.3960 H       
  60 H60            4.3010   -10.6251    -7.1414 H       
  61 H61            0.3478   -10.1825    -8.6823 H       
  62 H62            1.0780     3.8737    -1.7377 H       
  63 H63            0.2521     3.8092    -0.1619 H       
  64 H64            3.1252     3.3556    -0.6413 H       
  65 H65            3.3348     3.2151     1.7247 H       
  66 H66            1.5721     3.4240     1.8634 H       
  67 H67            2.1748     1.0368     2.0664 H       
  68 H68            3.0007     1.1013     0.4906 H       
  69 H69            3.0519   -13.4080    -8.1691 H       
  70 H70            1.4017   -13.2253    -8.8109 H       
  71 H71            2.2326   -13.7326   -11.0915 H       
  72 H72            3.8828   -13.9153   -10.4497 H       
  73 H73            0.5721   -15.3860   -10.6290 H       
  74 H74            0.9039   -16.6746    -9.4467 H       
  75 H75            0.7230   -14.9903    -8.9001 H       
  76 H76            4.1620   -16.2062   -10.9446 H       
  77 H77            2.8531   -17.3637   -10.6055 H       
  78 H78            2.6356   -16.1155   -11.8557 H       
@<TRIPOS>BOND
   1    1    2 1
   2    1   23 1
   3    1   31 1
   4    2    3 ar
   5    2    7 ar
   6    3    4 ar
   7    3   50 1
   8    4    5 ar
   9    4   51 1
  10    5    6 ar
  11    5    8 1
  12    6    7 ar
  13    6   52 1
  14    7   42 1
  15    8    9 1
  16    8   53 1
  17    9   10 ar
  18    9   14 ar
  19   10   11 ar
  20   11   12 ar
  21   11   15 1
  22   12   13 ar
  23   12   18 1
  24   13   14 ar
  25   13   54 1
  26   15   16 am
  27   15   19 1
  28   16   17 1
  29   16   20 2
  30   17   18 2
  31   17   21 1
  32   18   55 1
  33   19   46 1
  34   19   56 1
  35   19   57 1
  36   21   24 ar
  37   21   22 ar
  38   22   32 1
  39   22   27 ar
  40   23   28 1
  41   23   58 1
  42   23   59 1
  43   24   25 ar
  44   24   33 1
  45   25   26 ar
  46   25   60 1
  47   26   27 ar
  48   26   34 1
  49   27   61 1
  50   28   29 1
  51   28   62 1
  52   28   63 1
  53   29   30 1
  54   29   64 1
  55   30   31 1
  56   30   65 1
  57   30   66 1
  58   31   67 1
  59   31   68 1
  60   34   35 1
  61   34   40 2
  62   34   41 2
  63   35   36 1
  64   35   69 1
  65   35   70 1
  66   36   37 1
  67   36   71 1
  68   36   72 1
  69   37   38 1
  70   37   39 1
  71   38   73 1
  72   38   74 1
  73   38   75 1
  74   39   76 1
  75   39   77 1
  76   39   78 1
  77   42   43 1
  78   42   44 1
  79   42   45 1
  80   46   47 1
  81   46   48 1
  82   46   49 1

#	End of record

