#	Name: ASD01813656
#	Creating user name:	WinNT
#	Creation time:	15. 06. 2019 19:30

#	Modifying user name:	WinNT
#	Modification time:	15. 06. 2019 19:30

#	Program:	/corina/corina34_cracker 3.40 0067  02.08.2006

@<TRIPOS>MOLECULE
ASD01813656
  42   45    0    0    0
SMALL
NO_CHARGES


@<TRIPOS>ATOM
   1 C1             0.0979     1.4754     0.3559 C.ar    
   2 C2             0.0799     0.0882     0.3481 C.ar    
   3 C3             1.2501    -0.6307     0.2175 C.ar    
   4 C4             2.4672     0.0383     0.0917 C.ar    
   5 C5             2.4807     1.4430     0.1000 C.ar    
   6 C6             1.2891     2.1559     0.2330 C.ar    
   7 N7             3.6443    -0.6677    -0.0386 N.pl3   
   8 C8             4.8374    -0.0728    -0.1610 C.2     
   9 C9             4.9774     1.3006    -0.1658 C.2     
  10 C10            3.7745     2.1383    -0.0339 C.2     
  11 O11            3.8448     3.3548    -0.0328 O.2     
  12 C12            6.3052     1.9159    -0.3014 C.2     
  13 O13            6.4289     3.2582    -0.3047 O.3     
  14 O14            7.2919     1.2142    -0.4105 O.2     
  15 C15            3.5871    -2.1316    -0.0427 C.3     
  16 C16            3.4445    -2.6248    -1.4595 C.ar    
  17 C17            4.5601    -2.7693    -2.2640 C.ar    
  18 N18            4.4485    -3.1995    -3.5041 N.ar    
  19 C19            3.2708    -3.5101    -4.0292 C.ar    
  20 C20            2.1054    -3.3884    -3.2758 C.ar    
  21 C21            2.1934    -2.9437    -1.9677 C.ar    
  22 F22            1.2170    -1.9813     0.2121 F       
  23 C23            3.1939    -3.9907    -5.4309 C.ar    
  24 C24            4.3472    -4.1216    -6.2091 C.ar    
  25 C25            4.2307    -4.5722    -7.5084 C.ar    
  26 N26            3.0520    -4.8770    -8.0161 N.ar    
  27 C27            1.9397    -4.7677    -7.3157 C.ar    
  28 C28            1.9667    -4.3303    -6.0070 C.ar    
  29 H29           -0.8269     2.0243     0.4545 H       
  30 H30           -0.8602    -0.4345     0.4457 H       
  31 H31            1.3005     3.2358     0.2390 H       
  32 H32            5.7197    -0.6878    -0.2588 H       
  33 H33            7.3224     3.6165    -0.3963 H       
  34 H34            4.5033    -2.5323     0.3910 H       
  35 H35            2.7314    -2.4634     0.5454 H       
  36 H36            5.5359    -2.5259    -1.8704 H       
  37 H37            1.1470    -3.6413    -3.7048 H       
  38 H38            1.3073    -2.8393    -1.3592 H       
  39 H39            5.3155    -3.8735    -5.8000 H       
  40 H40            5.1163    -4.6763    -8.1177 H       
  41 H41            0.9956    -5.0278    -7.7711 H       
  42 H42            1.0521    -4.2434    -5.4392 H       
@<TRIPOS>BOND
   1    1    2 ar
   2    1    6 ar
   3    1   29 1
   4    2    3 ar
   5    2   30 1
   6    3    4 ar
   7    3   22 1
   8    4    5 ar
   9    4    7 1
  10    5    6 ar
  11    5   10 1
  12    6   31 1
  13    7    8 1
  14    7   15 1
  15    8    9 2
  16    8   32 1
  17    9   10 1
  18    9   12 1
  19   10   11 2
  20   12   13 1
  21   12   14 2
  22   13   33 1
  23   15   16 1
  24   15   34 1
  25   15   35 1
  26   16   17 ar
  27   16   21 ar
  28   17   18 ar
  29   17   36 1
  30   18   19 ar
  31   19   20 ar
  32   19   23 1
  33   20   21 ar
  34   20   37 1
  35   21   38 1
  36   23   24 ar
  37   23   28 ar
  38   24   25 ar
  39   24   39 1
  40   25   26 ar
  41   25   40 1
  42   26   27 ar
  43   27   28 ar
  44   27   41 1
  45   28   42 1

#	End of record

