#	Name: ASD00060043
#	Creating user name:	WinNT
#	Creation time:	15. 06. 2019 18:29

#	Modifying user name:	WinNT
#	Modification time:	15. 06. 2019 18:29

#	Program:	/corina/corina34_cracker 3.40 0067  02.08.2006

@<TRIPOS>MOLECULE
ASD00060043
  41   44    0    0    0
SMALL
NO_CHARGES


@<TRIPOS>ATOM
   1 C1            -0.0167     1.3823     0.0096 C.ar    
   2 C2             0.0021    -0.0041     0.0020 C.ar    
   3 C3             2.4217     0.0379    -0.0206 C.ar    
   4 C4             2.3842     1.4143    -0.0136 C.ar    
   5 C5             1.1705     2.0853     0.0021 C.ar    
   6 N6            -0.9833    -0.9779     0.0054 N.pl3   
   7 C7            -0.3540    -2.1906    -0.0075 C.2     
   8 N8             0.9450    -2.0176    -0.0185 N.2     
   9 C9             1.2284    -0.6888    -0.0134 C.ar    
  10 C10           -2.4304    -0.7498     0.0209 C.3     
  11 C11           -2.9404    -0.6627    -1.3945 C.2     
  12 O12           -2.1737    -0.7791    -2.3211 O.2     
  13 O13           -4.2463    -0.4557    -1.6258 O.3     
  14 S14           -1.1675    -3.7536    -0.0086 S.3     
  15 C15            0.2685    -4.8553    -0.0286 C.3     
  16 C16           -0.1978    -6.2883    -0.0323 C.ar    
  17 C17           -0.4103    -6.9651     1.1809 C.ar    
  18 C18           -0.4207    -6.9321    -1.2105 C.ar    
  19 C19           -0.8526    -8.2570    -1.2337 C.ar    
  20 C20           -1.0638    -8.9455    -0.0789 C.ar    
  21 C21           -0.8492    -8.3124     1.1573 C.ar    
  22 C22           -1.0610    -8.9893     2.3705 C.ar    
  23 C23           -0.8424    -8.3441     3.5487 C.ar    
  24 C24           -0.4112    -7.0189     3.5719 C.ar    
  25 C25           -0.1955    -6.3320     2.4170 C.ar    
  26 H26           -0.9586     1.9107     0.0170 H       
  27 H27            3.3703    -0.4782    -0.0332 H       
  28 H28            3.3069     1.9756    -0.0191 H       
  29 H29            1.1545     3.1652     0.0080 H       
  30 H30           -2.9229    -1.5756     0.5344 H       
  31 H31           -2.6457     0.1826     0.5428 H       
  32 H32           -4.5261    -0.4072    -2.5501 H       
  33 H33            0.8610    -4.6637    -0.9233 H       
  34 H34            0.8781    -4.6738     0.8566 H       
  35 H35           -0.2609    -6.4083    -2.1413 H       
  36 H36           -1.0224    -8.7446    -2.1823 H       
  37 H37           -1.3989    -9.9717    -0.1123 H       
  38 H38           -1.3958   -10.0161     2.3680 H       
  39 H39           -1.0059    -8.8666     4.4796 H       
  40 H40           -0.2460    -6.5299     4.5205 H       
  41 H41            0.1387    -5.3055     2.4504 H       
@<TRIPOS>BOND
   1    1    2 ar
   2    1    5 ar
   3    1   26 1
   4    2    9 ar
   5    2    6 1
   6    3    4 ar
   7    3    9 ar
   8    3   27 1
   9    4    5 ar
  10    4   28 1
  11    5   29 1
  12    6    7 1
  13    6   10 1
  14    7    8 2
  15    7   14 1
  16    8    9 1
  17   10   11 1
  18   10   30 1
  19   10   31 1
  20   11   12 2
  21   11   13 1
  22   13   32 1
  23   14   15 1
  24   15   16 1
  25   15   33 1
  26   15   34 1
  27   16   18 ar
  28   16   17 ar
  29   17   21 ar
  30   17   25 ar
  31   18   19 ar
  32   18   35 1
  33   19   20 ar
  34   19   36 1
  35   20   21 ar
  36   20   37 1
  37   21   22 ar
  38   22   23 ar
  39   22   38 1
  40   23   24 ar
  41   23   39 1
  42   24   25 ar
  43   24   40 1
  44   25   41 1

#	End of record

