#	Name: ASD05740029
#	Creating user name:	WinNT
#	Creation time:	15. 06. 2019 21:02

#	Modifying user name:	WinNT
#	Modification time:	15. 06. 2019 21:02

#	Program:	/corina/corina34_cracker 3.40 0067  02.08.2006

@<TRIPOS>MOLECULE
ASD05740029
  50   53    0    0    0
SMALL
NO_CHARGES


@<TRIPOS>ATOM
   1 C1            -0.0166     1.3766     0.0096 C.ar    
   2 C2            -3.1362     0.9950     1.3313 C.3     
   3 C3            -2.9664    -0.4690     3.4032 C.2     
   4 C4            -2.4388    -1.5780     4.0405 C.2     
   5 C5            -2.5816    -0.2034     2.0574 C.2     
   6 C6            -1.7110    -1.0393     1.4337 C.2     
   7 C7            -1.2034    -2.1520     2.1238 C.2     
   8 O8            -1.5732    -2.3917     3.3897 O.3     
   9 C9            -1.2931    -0.7744     0.0102 C.3     
  10 C10            0.0021    -0.0041     0.0020 C.ar    
  11 C11            1.2082    -0.6808    -0.0136 C.ar    
  12 O12           -0.4217    -2.9050     1.5679 O.2     
  13 C13            1.1779     2.0860     0.0020 C.ar    
  14 C14            2.3873     1.4033    -0.0132 C.ar    
  15 C15            2.3988     0.0221    -0.0207 C.ar    
  16 N16            1.1626     3.4826     0.0092 N.am    
  17 S17            2.1576     4.3268    -1.0104 S.o2    
  18 O18            1.8915     5.6901    -0.7105 O.2     
  19 O19            3.4441     3.7656    -0.7887 O.2     
  20 S20           -3.0686    -1.6791     5.6812 S.3     
  21 C21           -4.0284    -0.2268     5.4746 C.2     
  22 C22           -3.8780     0.2753     4.2594 C.2     
  23 O23           -4.8265     0.3095     6.4342 O.3     
  24 C24           -4.8876    -0.3167     7.6336 C.ar    
  25 N25           -5.6578     0.1854     8.5856 N.ar    
  26 C26           -5.7406    -0.4011     9.7685 C.ar    
  27 C27           -5.0083    -1.5541    10.0037 C.ar    
  28 C28           -4.2122    -2.0522     8.9843 C.ar    
  29 N29           -4.1798    -1.4188     7.8233 N.ar    
  30 C30            1.5599     3.9122    -2.6721 C.3     
  31 C31            2.4094     4.6400    -3.7160 C.3     
  32 H32           -0.9588     1.9045     0.0169 H       
  33 H33           -3.8120     1.5390     1.9912 H       
  34 H34           -2.3174     1.6487     1.0307 H       
  35 H35           -3.6804     0.6641     0.4467 H       
  36 H36           -1.1555    -1.7221    -0.5104 H       
  37 H37           -2.0653    -0.1923    -0.4928 H       
  38 H38            1.2200    -1.7607    -0.0199 H       
  39 H39            3.3177     1.9517    -0.0191 H       
  40 H40            3.3389    -0.5094    -0.0322 H       
  41 H41            0.5691     3.9581     0.6114 H       
  42 H42           -4.3853     1.1707     3.9317 H       
  43 H43           -6.3706     0.0137    10.5415 H       
  44 H44           -5.0568    -2.0533    10.9603 H       
  45 H45           -3.6287    -2.9485     9.1346 H       
  46 H46            1.6363     2.8361    -2.8277 H       
  47 H47            0.5192     4.2207    -2.7714 H       
  48 H48            2.0503     4.3908    -4.7145 H       
  49 H49            2.3331     5.7161    -3.5604 H       
  50 H50            3.4501     4.3315    -3.6167 H       
@<TRIPOS>BOND
   1    1   10 ar
   2    1   13 ar
   3    1   32 1
   4    2    5 1
   5    2   33 1
   6    2   34 1
   7    2   35 1
   8    3    4 2
   9    3    5 1
  10    3   22 1
  11    4   20 1
  12    4    8 1
  13    5    6 2
  14    6    7 1
  15    6    9 1
  16    7    8 1
  17    7   12 2
  18    9   10 1
  19    9   36 1
  20    9   37 1
  21   10   11 ar
  22   11   15 ar
  23   11   38 1
  24   13   14 ar
  25   13   16 1
  26   14   15 ar
  27   14   39 1
  28   15   40 1
  29   16   17 am
  30   16   41 1
  31   17   18 2
  32   17   19 2
  33   17   30 1
  34   20   21 1
  35   21   22 2
  36   21   23 1
  37   22   42 1
  38   23   24 1
  39   24   25 ar
  40   24   29 ar
  41   25   26 ar
  42   26   27 ar
  43   26   43 1
  44   27   28 ar
  45   27   44 1
  46   28   29 ar
  47   28   45 1
  48   30   31 1
  49   30   46 1
  50   30   47 1
  51   31   48 1
  52   31   49 1
  53   31   50 1

#	End of record

