#	Name: ASD06020032
#	Creating user name:	WinNT
#	Creation time:	15. 06. 2019 21:04

#	Modifying user name:	WinNT
#	Modification time:	15. 06. 2019 21:04

#	Program:	/corina/corina34_cracker 3.40 0067  02.08.2006

@<TRIPOS>MOLECULE
ASD06020032
  37   39    0    0    0
SMALL
NO_CHARGES


@<TRIPOS>ATOM
   1 C1            -0.0162     1.3436     0.0094 C.2     
   2 N2             0.0021    -0.0041     0.0020 N.am    
   3 O3             1.0277     1.9653     0.0028 O.2     
   4 O4            -1.1912     2.0008     0.0186 O.3     
   5 C5             1.2188    -0.6847    -0.0133 C.ar    
   6 C6             1.2334    -2.0827    -0.0209 C.ar    
   7 C7             2.4584    -2.7603    -0.0367 C.ar    
   8 C8             3.6337    -1.9673    -0.0441 C.ar    
   9 C9             3.5280    -0.6121    -0.0358 C.ar    
  10 N10            2.3518    -0.0049    -0.0259 N.ar    
  11 S11           -0.0599    -3.2766    -0.0150 S.3     
  12 C12            1.1261    -4.5755    -0.0340 C.2     
  13 N13            2.3235    -4.0871    -0.0429 N.2     
  14 C14            0.8009    -6.0175    -0.0390 C.ar    
  15 C15            1.8245    -6.9675    -0.0544 C.ar    
  16 C16            1.5131    -8.3130    -0.0590 C.ar    
  17 C17            0.1913    -8.7205    -0.0485 C.ar    
  18 C18           -0.8277    -7.7851    -0.0337 C.ar    
  19 C19           -0.5314    -6.4363    -0.0226 C.ar    
  20 Cl20          -1.8117    -5.2643     0.0044 Cl      
  21 Cl21           3.4841    -6.4584    -0.0682 Cl      
  22 C22           -1.1349     3.4517     0.0262 C.3     
  23 C23           -1.1220     3.9692    -1.4136 C.3     
  24 C24           -2.3600     4.0058     0.7563 C.3     
  25 H25           -0.8313    -0.5005     0.0073 H       
  26 H26            4.6063    -2.4368    -0.0559 H       
  27 H27            4.4277    -0.0147    -0.0415 H       
  28 H28            2.3036    -9.0488    -0.0713 H       
  29 H29           -0.0463    -9.7740    -0.0521 H       
  30 H30           -1.8575    -8.1105    -0.0262 H       
  31 H31           -0.2291     3.7775     0.5375 H       
  32 H32           -2.0278     3.6434    -1.9249 H       
  33 H33           -1.0797     5.0583    -1.4079 H       
  34 H34           -0.2492     3.5744    -1.9337 H       
  35 H35           -2.3692     3.6372     1.7820 H       
  36 H36           -2.3177     5.0950     0.7620 H       
  37 H37           -3.2658     3.6801     0.2450 H       
@<TRIPOS>BOND
   1    1    2 am
   2    1    3 2
   3    1    4 1
   4    2    5 1
   5    2   25 1
   6    4   22 1
   7    5    6 ar
   8    5   10 ar
   9    6    7 ar
  10    6   11 1
  11    7    8 ar
  12    7   13 1
  13    8    9 ar
  14    8   26 1
  15    9   10 ar
  16    9   27 1
  17   11   12 1
  18   12   13 2
  19   12   14 1
  20   14   15 ar
  21   14   19 ar
  22   15   16 ar
  23   15   21 1
  24   16   17 ar
  25   16   28 1
  26   17   18 ar
  27   17   29 1
  28   18   19 ar
  29   18   30 1
  30   19   20 1
  31   22   23 1
  32   22   24 1
  33   22   31 1
  34   23   32 1
  35   23   33 1
  36   23   34 1
  37   24   35 1
  38   24   36 1
  39   24   37 1

#	End of record

