#	Name: ASD01150737
#	Creating user name:	WinNT
#	Creation time:	15. 06. 2019 19:04

#	Modifying user name:	WinNT
#	Modification time:	15. 06. 2019 19:04

#	Program:	/corina/corina34_cracker 3.40 0067  02.08.2006

@<TRIPOS>MOLECULE
ASD01150737
  39   41    0    0    0
SMALL
NO_CHARGES


@<TRIPOS>ATOM
   1 C1             0.0107     1.5243     0.4566 C.2     
   2 C2            -0.8916     1.1697    -0.6971 C.3     
   3 N3             3.6003     2.2080    -0.1249 N.ar    
   4 C4             2.4771     1.5754     0.0913 C.ar    
   5 C5             1.2551     2.2617     0.2146 C.ar    
   6 C6             1.2414     3.6641     0.1025 C.ar    
   7 C7             2.4764     4.3180    -0.1318 C.ar    
   8 C8             2.5453     5.7117    -0.2559 C.ar    
   9 C9             3.7639     6.3131    -0.4839 C.ar    
  10 C10            4.9251     5.5439    -0.5919 C.ar    
  11 C11            4.8813     4.1884    -0.4747 C.ar    
  12 C12            3.6564     3.5420    -0.2416 C.ar    
  13 O13            3.8366     7.6647    -0.6051 O.3     
  14 C14            5.1293     8.2263    -0.8407 C.3     
  15 F15            5.6502     7.7133    -2.0335 F       
  16 F16            5.0224     9.6177    -0.9388 F       
  17 F17            5.9808     7.8976     0.2195 F       
  18 C18            2.4913     0.0733     0.2109 C.3     
  19 C19           -0.0170     4.4282     0.2243 C.ar    
  20 C20           -0.7135     4.4438     1.4351 C.ar    
  21 C21           -1.8882     5.1595     1.5423 C.ar    
  22 C22           -2.3770     5.8619     0.4513 C.ar    
  23 C23           -1.6903     5.8496    -0.7512 C.ar    
  24 C24           -0.5120     5.1427    -0.8689 C.ar    
  25 Cl25          -3.8560     6.7597     0.5931 Cl      
  26 Cl26          -2.7562     5.1802     3.0456 Cl      
  27 O27           -0.2948     1.2040     1.5862 O.2     
  28 H28           -0.3231     0.6202    -1.4475 H       
  29 H29           -1.7137     0.5502    -0.3385 H       
  30 H30           -1.2908     2.0822    -1.1400 H       
  31 H31            1.6501     6.3101    -0.1738 H       
  32 H32            5.8717     6.0320    -0.7714 H       
  33 H33            5.7891     3.6097    -0.5613 H       
  34 H34            2.5491    -0.2070     1.2626 H       
  35 H35            1.5789    -0.3345    -0.2242 H       
  36 H36            3.3563    -0.3253    -0.3193 H       
  37 H37           -0.3336     3.8967     2.2852 H       
  38 H38           -2.0762     6.3984    -1.5976 H       
  39 H39            0.0248     5.1381    -1.8061 H       
@<TRIPOS>BOND
   1    1    2 1
   2    1    5 1
   3    1   27 2
   4    2   28 1
   5    2   29 1
   6    2   30 1
   7    3    4 ar
   8    3   12 ar
   9    4    5 ar
  10    4   18 1
  11    5    6 ar
  12    6    7 ar
  13    6   19 1
  14    7    8 ar
  15    7   12 ar
  16    8    9 ar
  17    8   31 1
  18    9   10 ar
  19    9   13 1
  20   10   11 ar
  21   10   32 1
  22   11   12 ar
  23   11   33 1
  24   13   14 1
  25   14   15 1
  26   14   16 1
  27   14   17 1
  28   18   34 1
  29   18   35 1
  30   18   36 1
  31   19   20 ar
  32   19   24 ar
  33   20   21 ar
  34   20   37 1
  35   21   22 ar
  36   21   26 1
  37   22   23 ar
  38   22   25 1
  39   23   24 ar
  40   23   38 1
  41   24   39 1

#	End of record

