#	Name: ASD05740224
#	Creating user name:	WinNT
#	Creation time:	15. 06. 2019 21:03

#	Modifying user name:	WinNT
#	Modification time:	15. 06. 2019 21:03

#	Program:	/corina/corina34_cracker 3.40 0067  02.08.2006

@<TRIPOS>MOLECULE
ASD05740224
  62   67    0    0    0
SMALL
NO_CHARGES


@<TRIPOS>ATOM
   1 C1             0.9001    -0.7897    -0.3482 C.3     
   2 N2             0.0141    -0.1325     0.6227 N.3     
   3 C3            -1.2942    -0.6175     0.5163 C.ar    
   4 C4            -2.2885    -0.1220     1.3497 C.ar    
   5 C5            -3.5793    -0.6006     1.2447 C.ar    
   6 C6            -3.8833    -1.5778     0.3060 C.ar    
   7 C7            -2.8890    -2.0736    -0.5271 C.ar    
   8 C8            -1.5996    -1.5903    -0.4267 C.ar    
   9 N9            -5.1928    -2.0637     0.1997 N.pl3   
  10 C10           -6.2630    -1.2162     0.4097 C.ar    
  11 N11           -6.0264     0.0775     0.5980 N.ar    
  12 N12           -7.4870    -1.7234     0.4105 N.ar    
  13 C13           -8.5383    -0.9388     0.6091 C.ar    
  14 C14           -8.3247     0.4416     0.8184 C.ar    
  15 C15           -7.0137     0.9308     0.8030 C.ar    
  16 N16           -9.8167    -1.4339     0.6151 N.am    
  17 C17          -10.8711    -0.6239     0.8175 C.2     
  18 C18          -10.7144     0.7605     1.0308 C.2     
  19 C19           -9.4737     1.3147     1.0379 C.2     
  20 C20          -10.0375    -2.8658     0.3974 C.3     
  21 O21          -11.9930    -1.1001     0.8160 O.2     
  22 C22           -9.9190    -3.5975     1.7095 C.ar    
  23 C23           -9.9657    -4.9785     1.7372 C.ar    
  24 C24            0.5256    -0.2931     1.9910 C.3     
  25 C25            1.9249     0.3198     2.0849 C.3     
  26 N26            2.8109    -0.3374     1.1140 N.3     
  27 C27            2.2994    -0.1768    -0.2543 C.3     
  28 C28           -9.8570    -5.6498     2.9410 C.ar    
  29 C29           -9.7011    -4.9399     4.1166 C.ar    
  30 C30           -9.6535    -3.5584     4.0887 C.ar    
  31 C31           -9.7578    -2.8875     2.8848 C.ar    
  32 C32          -10.1356    -5.7526     0.4555 C.3     
  33 C33           -9.0995    -6.8334     0.1402 C.3     
  34 C34          -10.5138    -7.2309     0.5678 C.3     
  35 H35            0.9544    -1.8557    -0.1274 H       
  36 H36            0.5069    -0.6460    -1.3546 H       
  37 H37           -2.0519     0.6374     2.0802 H       
  38 H38           -4.3525    -0.2153     1.8928 H       
  39 H39           -3.1254    -2.8341    -1.2567 H       
  40 H40           -0.8263    -1.9759    -1.0746 H       
  41 H41           -5.3480    -2.9953    -0.0213 H       
  42 H42           -6.8135     1.9805     0.9598 H       
  43 H43          -11.5829     1.3826     1.1895 H       
  44 H44           -9.3412     2.3741     1.2007 H       
  45 H45          -11.0339    -3.0210    -0.0165 H       
  46 H46           -9.2911    -3.2466    -0.2997 H       
  47 H47           -0.1405     0.2126     2.6900 H       
  48 H48            0.5757    -1.3535     2.2384 H       
  49 H49            1.8706     1.3858     1.8641 H       
  50 H50            2.3181     0.1761     3.0913 H       
  51 H51            3.7542     0.0123     1.1907 H       
  52 H52            2.9655    -0.6826    -0.9533 H       
  53 H53            2.2493     0.8836    -0.5017 H       
  54 H54           -9.8942    -6.7290     2.9627 H       
  55 H55           -9.6169    -5.4642     5.0570 H       
  56 H56           -9.5320    -3.0037     5.0073 H       
  57 H57           -9.7205    -1.8084     2.8631 H       
  58 H58          -10.5469    -5.1899    -0.3826 H       
  59 H59           -8.8294    -6.9819    -0.9053 H       
  60 H60           -8.2950    -6.9845     0.8599 H       
  61 H61          -10.6396    -7.6436     1.5688 H       
  62 H62          -11.1740    -7.6410    -0.1964 H       
@<TRIPOS>BOND
   1    1    2 1
   2    1   27 1
   3    1   35 1
   4    1   36 1
   5    2    3 1
   6    2   24 1
   7    3    4 ar
   8    3    8 ar
   9    4    5 ar
  10    4   37 1
  11    5    6 ar
  12    5   38 1
  13    6    7 ar
  14    6    9 1
  15    7    8 ar
  16    7   39 1
  17    8   40 1
  18    9   10 1
  19    9   41 1
  20   10   11 ar
  21   10   12 ar
  22   11   15 ar
  23   12   13 ar
  24   13   14 ar
  25   13   16 1
  26   14   15 ar
  27   14   19 1
  28   15   42 1
  29   16   17 am
  30   16   20 1
  31   17   18 1
  32   17   21 2
  33   18   19 2
  34   18   43 1
  35   19   44 1
  36   20   22 1
  37   20   45 1
  38   20   46 1
  39   22   23 ar
  40   22   31 ar
  41   23   28 ar
  42   23   32 1
  43   24   25 1
  44   24   47 1
  45   24   48 1
  46   25   26 1
  47   25   49 1
  48   25   50 1
  49   26   27 1
  50   26   51 1
  51   27   52 1
  52   27   53 1
  53   28   29 ar
  54   28   54 1
  55   29   30 ar
  56   29   55 1
  57   30   31 ar
  58   30   56 1
  59   31   57 1
  60   32   33 1
  61   32   34 1
  62   32   58 1
  63   33   34 1
  64   33   59 1
  65   33   60 1
  66   34   61 1
  67   34   62 1

#	End of record

