#	Name: ASD01410824
#	Creating user name:	WinNT
#	Creation time:	15. 06. 2019 19:18

#	Modifying user name:	WinNT
#	Modification time:	15. 06. 2019 19:18

#	Program:	/corina/corina34_cracker 3.40 0067  02.08.2006

@<TRIPOS>MOLECULE
ASD01410824
  77   78    0    0    0
SMALL
NO_CHARGES


@<TRIPOS>ATOM
   1 C1             0.9595     1.0952     2.5484 C.3     
   2 C2             0.6994    -0.2664     1.8633 C.3     
   3 N3             0.1550    -1.1220     2.9378 N.am    
   4 C4            -0.5003    -0.2610     3.9300 C.3     
   5 C5            -0.2703     1.2015     3.4910 C.3     
   6 C6            -1.9773    -0.5578     3.9703 C.2     
   7 O7            -2.4435    -1.4039     3.2446 O.2     
   8 O8            -2.7748     0.1178     4.8125 O.3     
   9 C9            -4.1868    -0.2205     4.7974 C.3     
  10 C10            2.0290    -0.8802     1.4109 C.3     
  11 C11            1.1679    -3.1963     2.0236 C.3     
  12 C12            0.2879    -2.4580     2.9926 C.2     
  13 O13           -0.3140    -3.0806     3.8418 O.2     
  14 C14            0.3273    -4.2294     1.2706 C.3     
  15 C15           -0.3356    -3.5647     0.0624 C.3     
  16 C16            1.2282    -5.3706     0.7943 C.3     
  17 C17           -0.7514    -4.7860     2.2021 C.3     
  18 N18            1.7800    -2.2842     1.0600 N.am    
  19 O19            2.4811    -1.8666    -1.1258 O.3     
  20 C20            2.8338    -2.4241    -2.4193 C.3     
  21 C21            1.6383    -3.1919    -2.9869 C.3     
  22 C22            3.2139    -1.2923    -3.3760 C.3     
  23 C23            4.0210    -3.3757    -2.2579 C.3     
  24 C24            2.1195    -2.7361    -0.1635 C.2     
  25 O25            2.0993    -3.9281    -0.3981 O.2     
  26 Si26           2.9259     2.5160     3.3928 Si      
  27 C27            4.4912     2.3393     4.3874 C.3     
  28 C28            1.7976     3.7439     4.2235 C.3     
  29 C29            3.3434     3.1165     1.6793 C.3     
  30 C30            4.1484     1.8461     5.7946 C.3     
  31 C31            5.4179     1.3309     3.7052 C.3     
  32 C32            5.1930     3.6958     4.4793 C.3     
  33 O33            2.1778     1.0700     3.2949 O.3     
  34 H34            0.9662     1.9055     1.8194 H       
  35 H35           -0.0057    -0.1673     1.0380 H       
  36 H36           -0.0598    -0.4266     4.9131 H       
  37 H37           -0.0431     1.8309     4.3514 H       
  38 H38           -1.1373     1.5828     2.9516 H       
  39 H39           -4.5928    -0.0409     3.8019 H       
  40 H40           -4.3112    -1.2720     5.0563 H       
  41 H41           -4.7162     0.3974     5.5227 H       
  42 H42            2.4059    -0.3435     0.5403 H       
  43 H43            2.7554    -0.8257     2.2218 H       
  44 H44            1.9541    -3.7107     2.5762 H       
  45 H45            0.4329    -3.1682    -0.6012 H       
  46 H46           -0.9345    -4.3007    -0.4740 H       
  47 H47           -0.9774    -2.7517     0.4017 H       
  48 H48            2.2207    -5.2561     1.2301 H       
  49 H49            0.8022    -6.3242     1.1062 H       
  50 H50            1.3035    -5.3446    -0.2928 H       
  51 H51           -1.3932    -3.9729     2.5414 H       
  52 H52           -1.3503    -5.5219     1.6656 H       
  53 H53           -0.2791    -5.2595     3.0628 H       
  54 H54            0.7926    -2.5139    -3.1019 H       
  55 H55            1.9031    -3.6104    -3.9579 H       
  56 H56            1.3675    -3.9982    -2.3054 H       
  57 H57            4.0656    -0.7453    -2.9716 H       
  58 H58            3.4787    -1.7108    -4.3470 H       
  59 H59            2.3682    -0.6143    -3.4910 H       
  60 H60            3.7502    -4.1821    -1.5763 H       
  61 H61            4.2858    -3.7943    -3.2289 H       
  62 H62            4.8727    -2.8288    -1.8535 H       
  63 H63            2.2975     4.7103     4.2889 H       
  64 H64            0.8818     3.8473     3.6415 H       
  65 H65            1.5534     3.3925     5.2260 H       
  66 H66            4.0035     2.3981     1.1933 H       
  67 H67            2.4275     3.2199     1.0974 H       
  68 H68            3.8433     4.0829     1.7448 H       
  69 H69            3.6485     0.8797     5.7291 H       
  70 H70            5.0643     1.7427     6.3765 H       
  71 H71            3.4883     2.5645     6.2806 H       
  72 H72            5.6621     1.6823     2.7027 H       
  73 H73            6.3337     1.2275     4.2872 H       
  74 H74            4.9179     0.3645     3.6398 H       
  75 H75            4.5328     4.4142     4.9653 H       
  76 H76            6.1088     3.5924     5.0612 H       
  77 H77            5.4372     4.0471     3.4768 H       
@<TRIPOS>BOND
   1    1    2 1
   2    1   33 1
   3    1    5 1
   4    1   34 1
   5    2    3 1
   6    2   10 1
   7    2   35 1
   8    3    4 1
   9    3   12 am
  10    4    5 1
  11    4    6 1
  12    4   36 1
  13    5   37 1
  14    5   38 1
  15    6    7 2
  16    6    8 1
  17    8    9 1
  18    9   39 1
  19    9   40 1
  20    9   41 1
  21   10   18 1
  22   10   42 1
  23   10   43 1
  24   11   12 1
  25   11   14 1
  26   11   18 1
  27   11   44 1
  28   12   13 2
  29   14   15 1
  30   14   16 1
  31   14   17 1
  32   15   45 1
  33   15   46 1
  34   15   47 1
  35   16   48 1
  36   16   49 1
  37   16   50 1
  38   17   51 1
  39   17   52 1
  40   17   53 1
  41   18   24 am
  42   19   20 1
  43   19   24 1
  44   20   21 1
  45   20   22 1
  46   20   23 1
  47   21   54 1
  48   21   55 1
  49   21   56 1
  50   22   57 1
  51   22   58 1
  52   22   59 1
  53   23   60 1
  54   23   61 1
  55   23   62 1
  56   24   25 2
  57   26   27 1
  58   26   28 1
  59   26   29 1
  60   26   33 1
  61   27   30 1
  62   27   31 1
  63   27   32 1
  64   28   63 1
  65   28   64 1
  66   28   65 1
  67   29   66 1
  68   29   67 1
  69   29   68 1
  70   30   69 1
  71   30   70 1
  72   30   71 1
  73   31   72 1
  74   31   73 1
  75   31   74 1
  76   32   75 1
  77   32   76 1
  78   32   77 1

#	End of record

