#	Name: ASD01916241
#	Creating user name:	WinNT
#	Creation time:	15. 06. 2019 20:07

#	Modifying user name:	WinNT
#	Modification time:	15. 06. 2019 20:07

#	Program:	/corina/corina34_cracker 3.40 0067  02.08.2006

@<TRIPOS>MOLECULE
ASD01916241
  38   39    0    0    0
SMALL
NO_CHARGES


@<TRIPOS>ATOM
   1 C1             0.4262     1.2264    -0.4141 C.ar    
   2 C2             0.6390    -0.1379    -0.3266 C.ar    
   3 C3             1.7849    -0.6251     0.2714 C.ar    
   4 C4             2.7315     0.2606     0.7888 C.ar    
   5 C5             2.5152     1.6362     0.6992 C.ar    
   6 C6             1.3629     2.1143     0.0982 C.ar    
   7 O7             1.1491     3.4533     0.0087 O.3     
   8 C8             1.6338     4.1055    -1.0807 C.ar    
   9 C9             1.5437     5.4900    -1.1821 C.ar    
  10 N10            2.0274     6.0877    -2.2585 N.ar    
  11 C11            2.5880     5.3895    -3.2255 C.ar    
  12 N12            2.6917     4.0770    -3.1667 N.ar    
  13 C13            2.2379     3.4063    -2.1206 C.ar    
  14 C14            3.9587    -0.2570     1.4298 C.2     
  15 N15            4.1651    -1.5861     1.5155 N.am    
  16 O16            4.7818     0.5162     1.8798 O.2     
  17 C17            5.3177    -2.0721     2.1176 C.2     
  18 S18            6.5960    -1.0811     2.8133 S.3     
  19 C19            7.4854    -2.5351     3.2595 C.2     
  20 C20            6.7710    -3.6060     2.8615 C.2     
  21 N21            5.6161    -3.3255     2.2592 N.2     
  22 Cl22          -0.5376    -1.2404    -0.9698 Cl      
  23 C23            7.2184    -4.9494     3.0752 C.1     
  24 C24            7.5853    -6.0508     3.2504 C.1     
  25 C25            8.0453    -7.4317     3.4700 C.3     
  26 H26           -0.4695     1.6021    -0.8863 H       
  27 H27            1.9480    -1.6905     0.3388 H       
  28 H28            3.2441     2.3261     1.0981 H       
  29 H29            1.0853     6.0685    -0.3936 H       
  30 H30            2.9731     5.9077    -4.0912 H       
  31 H31            2.3262     2.3307    -2.0790 H       
  32 H32            3.5083    -2.2030     1.1565 H       
  33 H33            8.4395    -2.5633     3.7648 H       
  34 H34            7.3096    -8.1281     3.0674 H       
  35 H35            9.0004    -7.5809     2.9666 H       
  36 H36            8.1663    -7.6087     4.5387 H       
  37 H37           14.0004    11.0877     9.5387 H       
  38 H38           14.0004    11.8477     9.5387 H       
@<TRIPOS>BOND
   1    1    2 ar
   2    1    6 ar
   3    1   26 1
   4    2    3 ar
   5    2   22 1
   6    3    4 ar
   7    3   27 1
   8    4    5 ar
   9    4   14 1
  10    5    6 ar
  11    5   28 1
  12    6    7 1
  13    7    8 1
  14    8    9 ar
  15    8   13 ar
  16    9   10 ar
  17    9   29 1
  18   10   11 ar
  19   11   12 ar
  20   11   30 1
  21   12   13 ar
  22   13   31 1
  23   14   15 am
  24   14   16 2
  25   15   17 1
  26   15   32 1
  27   17   18 1
  28   17   21 2
  29   18   19 1
  30   19   20 2
  31   19   33 1
  32   20   21 1
  33   20   23 1
  34   23   24 3
  35   24   25 1
  36   25   34 1
  37   25   35 1
  38   25   36 1
  39   37   38 1

#	End of record

