#	Name: ASD03090292
#	Creating user name:	WinNT
#	Creation time:	15. 06. 2019 20:28

#	Modifying user name:	WinNT
#	Modification time:	15. 06. 2019 20:28

#	Program:	/corina/corina34_cracker 3.40 0067  02.08.2006

@<TRIPOS>MOLECULE
ASD03090292
  56   58    0    0    0
SMALL
NO_CHARGES


@<TRIPOS>ATOM
   1 N1            -0.2672     1.0365    -0.6656 N.ar    
   2 C2             0.0256     0.0151    -1.4563 C.ar    
   3 C3             1.2719    -0.5953    -1.3949 C.ar    
   4 C4             2.2152    -0.1150    -0.4842 C.ar    
   5 C5             1.8586     0.9672     0.3306 C.ar    
   6 C6             0.6000     1.5157     0.2062 C.ar    
   7 C7             3.5557    -0.7332    -0.3821 C.2     
   8 N8             5.7791    -3.4528    -0.3631 N.pl3   
   9 C9             7.1476    -3.5406    -0.0945 C.ar    
  10 C10            7.9154    -4.5192    -0.7104 C.ar    
  11 C11            9.2727    -4.6027    -0.4417 C.ar    
  12 C12            9.8606    -3.7085     0.4418 C.ar    
  13 C13            9.0946    -2.7349     1.0547 C.ar    
  14 C14            7.7430    -2.6446     0.7854 C.ar    
  15 N15            3.8259    -2.0186    -0.4648 N.2     
  16 C16            5.1399    -2.2143    -0.3282 C.2     
  17 N17            5.7347    -1.0572    -0.1557 N.2     
  18 N18            4.7344    -0.0720    -0.1913 N.am    
  19 C19            4.9033     1.2582    -0.0553 C.2     
  20 N20            6.1438     1.7712     0.0645 N.am    
  21 C21            6.3274     3.2171     0.2124 C.3     
  22 C22            7.8201     3.5324     0.3279 C.3     
  23 N23           -0.9250    -0.4514    -2.3574 N.pl3   
  24 C24           -0.6095    -1.5807    -3.2358 C.3     
  25 O25           10.0271    -5.5600    -1.0428 O.3     
  26 C26            9.3558    -6.4466    -1.9402 C.3     
  27 O27            3.9371     1.9949    -0.0407 O.2     
  28 O28            8.4751     3.1913    -0.8955 O.3     
  29 C29           -1.8178    -1.8908    -4.1217 C.3     
  30 O30           -2.0623    -0.7879    -4.9969 O.3     
  31 C31            9.7366    -1.7660     2.0140 C.3     
  32 F32           11.1024    -2.0501     2.1193 F       
  33 F33            9.5670    -0.4603     1.5413 F       
  34 F34            9.1365    -1.8883     3.2718 F       
  35 H35            1.5073    -1.4282    -2.0409 H       
  36 H36            2.5607     1.3667     1.0474 H       
  37 H37            0.3193     2.3503     0.8316 H       
  38 H38            5.2738    -4.2536    -0.5737 H       
  39 H39            7.4561    -5.2145    -1.3975 H       
  40 H40           10.9181    -3.7737     0.6510 H       
  41 H41            7.1467    -1.8829     1.2657 H       
  42 H42            6.9151     1.1830     0.0529 H       
  43 H43            5.9147     3.7266    -0.6583 H       
  44 H44            5.8133     3.5586     1.1108 H       
  45 H45            7.9524     4.5960     0.5266 H       
  46 H46            8.2516     2.9538     1.1446 H       
  47 H47           -1.7970    -0.0292    -2.4045 H       
  48 H48            0.2448    -1.3257    -3.8628 H       
  49 H49           -0.3684    -2.4550    -2.6312 H       
  50 H50            8.9097    -5.8724    -2.7523 H       
  51 H51           10.0714    -7.1595    -2.3497 H       
  52 H52            8.5742    -6.9840    -1.4032 H       
  53 H53            9.4263     3.3651    -0.8941 H       
  54 H54           -1.6159    -2.7849    -4.7116 H       
  55 H55           -2.6939    -2.0588    -3.4954 H       
  56 H56           -2.8161    -0.9153    -5.5890 H       
@<TRIPOS>BOND
   1    1    2 ar
   2    1    6 ar
   3    2    3 ar
   4    2   23 1
   5    3    4 ar
   6    3   35 1
   7    4    5 ar
   8    4    7 1
   9    5    6 ar
  10    5   36 1
  11    6   37 1
  12    7   15 2
  13    7   18 1
  14    8    9 1
  15    8   16 1
  16    8   38 1
  17    9   10 ar
  18    9   14 ar
  19   10   11 ar
  20   10   39 1
  21   11   12 ar
  22   11   25 1
  23   12   13 ar
  24   12   40 1
  25   13   14 ar
  26   13   31 1
  27   14   41 1
  28   15   16 1
  29   16   17 2
  30   17   18 1
  31   18   19 am
  32   19   20 am
  33   19   27 2
  34   20   21 1
  35   20   42 1
  36   21   22 1
  37   21   43 1
  38   21   44 1
  39   22   28 1
  40   22   45 1
  41   22   46 1
  42   23   24 1
  43   23   47 1
  44   24   29 1
  45   24   48 1
  46   24   49 1
  47   25   26 1
  48   26   50 1
  49   26   51 1
  50   26   52 1
  51   28   53 1
  52   29   30 1
  53   29   54 1
  54   29   55 1
  55   30   56 1
  56   31   32 1
  57   31   33 1
  58   31   34 1

#	End of record

