#	Name: ASD01813342
#	Creating user name:	WinNT
#	Creation time:	15. 06. 2019 19:30

#	Modifying user name:	WinNT
#	Modification time:	15. 06. 2019 19:30

#	Program:	/corina/corina34_cracker 3.40 0067  02.08.2006

@<TRIPOS>MOLECULE
ASD01813342
  49   52    0    0    0
SMALL
NO_CHARGES


@<TRIPOS>ATOM
   1 C1            -0.0169     1.3972     0.0097 C.2     
   2 C2             0.0021    -0.0041     0.0020 C.2     
   3 C3             1.1986    -0.6593    -0.0129 C.2     
   4 C4             2.3918     0.0821    -0.0204 C.2     
   5 N5             2.3437     1.4497    -0.0122 N.am    
   6 C6             1.1421     2.0937     0.0024 C.2     
   7 C7             3.6227    -0.5889    -0.0356 C.2     
   8 C8             4.7877     0.1218    -0.0425 C.2     
   9 C9             4.7345     1.5280    -0.0346 C.2     
  10 C10            3.4812     2.1736    -0.0189 C.2     
  11 O11            3.4258     3.3917    -0.0123 O.2     
  12 C12            5.9703     2.3140    -0.0413 C.2     
  13 O13            5.9124     3.6618    -0.0337 O.3     
  14 O14            7.0487     1.7516    -0.0537 O.2     
  15 C15            3.6593    -2.0954    -0.0439 C.3     
  16 C16            3.7837    -2.5946    -1.4848 C.3     
  17 N17            3.8194    -4.0631    -1.4929 N.3     
  18 C18            2.5421    -4.6223    -1.0391 C.3     
  19 C19            2.5562    -6.1247    -1.1463 C.ar    
  20 C20            3.4800    -6.7898    -1.9234 C.ar    
  21 C21            4.5349    -6.0502    -2.7057 C.3     
  22 C22            4.1527    -4.5752    -2.8317 C.3     
  23 C23            1.6062    -6.8462    -0.4381 C.ar    
  24 C24            1.5804    -8.2242    -0.5094 C.ar    
  25 C25            2.5059    -8.8907    -1.2910 C.ar    
  26 C26            3.4522    -8.1744    -1.9958 C.ar    
  27 C27            0.5459    -9.0010     0.2635 C.3     
  28 F28           -0.5953    -9.1728    -0.5274 F       
  29 F29            1.0655   -10.2527     0.6104 F       
  30 F30            0.2069    -8.2987     1.4250 F       
  31 H31           -0.9605     1.9226     0.0170 H       
  32 H32           -0.9233    -0.5609     0.0082 H       
  33 H33            1.2282    -1.7389    -0.0187 H       
  34 H34            1.1156     3.1733     0.0087 H       
  35 H35            5.7393    -0.3889    -0.0536 H       
  36 H36            6.7544     4.1373    -0.0385 H       
  37 H37            4.5153    -2.4412     0.5356 H       
  38 H38            2.7412    -2.4836     0.3971 H       
  39 H39            2.9277    -2.2488    -2.0643 H       
  40 H40            4.7018    -2.2064    -1.9259 H       
  41 H41            2.3734    -4.3374    -0.0006 H       
  42 H42            1.7360    -4.2252    -1.6560 H       
  43 H43            5.4920    -6.1334    -2.1909 H       
  44 H44            4.6212    -6.4879    -3.7002 H       
  45 H45            3.2878    -4.4757    -3.4876 H       
  46 H46            4.9923    -4.0129    -3.2403 H       
  47 H47            0.8828    -6.3266     0.1727 H       
  48 H48            2.4888    -9.9690    -1.3496 H       
  49 H49            4.1750    -8.6950    -2.6064 H       
@<TRIPOS>BOND
   1    1    2 1
   2    1    6 2
   3    1   31 1
   4    2    3 2
   5    2   32 1
   6    3    4 1
   7    3   33 1
   8    4    5 1
   9    4    7 2
  10    5    6 1
  11    5   10 am
  12    6   34 1
  13    7    8 1
  14    7   15 1
  15    8    9 2
  16    8   35 1
  17    9   10 1
  18    9   12 1
  19   10   11 2
  20   12   13 1
  21   12   14 2
  22   13   36 1
  23   15   16 1
  24   15   37 1
  25   15   38 1
  26   16   17 1
  27   16   39 1
  28   16   40 1
  29   17   18 1
  30   17   22 1
  31   18   19 1
  32   18   41 1
  33   18   42 1
  34   19   20 ar
  35   19   23 ar
  36   20   21 1
  37   20   26 ar
  38   21   22 1
  39   21   43 1
  40   21   44 1
  41   22   45 1
  42   22   46 1
  43   23   24 ar
  44   23   47 1
  45   24   25 ar
  46   24   27 1
  47   25   26 ar
  48   25   48 1
  49   26   49 1
  50   27   28 1
  51   27   29 1
  52   27   30 1

#	End of record

