#	Name: ASD07931874
#	Creating user name:	WinNT
#	Creation time:	15. 06. 2019 21:13

#	Modifying user name:	WinNT
#	Modification time:	15. 06. 2019 21:13

#	Program:	/corina/corina34_cracker 3.40 0067  02.08.2006

@<TRIPOS>MOLECULE
ASD07931874
  49   50    0    0    0
SMALL
NO_CHARGES


@<TRIPOS>ATOM
   1 C1            -0.0162     1.3436     0.0094 C.2     
   2 N2             0.0021    -0.0041     0.0020 N.am    
   3 O3             1.0277     1.9654     0.0028 O.2     
   4 O4            -1.1912     2.0008     0.0186 O.3     
   5 C5             1.2806    -0.7192    -0.0140 C.3     
   6 C6             1.8007    -0.8662     1.4173 C.3     
   7 O7             0.1025    -2.8583     0.1190 O.3     
   8 C8             1.0816    -2.1059    -0.6292 C.3     
   9 C9             0.4491    -1.9916    -2.0397 C.3     
  10 C10           -0.2356    -3.3706    -2.2008 C.3     
  11 C11           -0.3981    -3.8827    -0.7564 C.3     
  12 C12           -1.8540    -4.1397    -0.4646 C.ar    
  13 C13           -2.4217    -5.3554    -0.7985 C.ar    
  14 C14           -3.7568    -5.5915    -0.5315 C.ar    
  15 C15           -4.5256    -4.6111     0.0705 C.ar    
  16 C16           -3.9571    -3.3951     0.4048 C.ar    
  17 C17           -2.6200    -3.1620     0.1419 C.ar    
  18 C18           -1.5843    -6.4231    -1.4542 C.3     
  19 F19           -2.3734    -7.5532    -1.6936 F       
  20 F20           -1.0799    -5.9410    -2.6668 F       
  21 F21           -0.5221    -6.7662    -0.6108 F       
  22 Cl22          -6.2031    -4.9067     0.4057 Cl      
  23 C23           -1.1349     3.4517     0.0262 C.3     
  24 C24           -0.4003     3.9401    -1.2239 C.3     
  25 C25           -2.5565     4.0172     0.0360 C.3     
  26 C26           -0.3885     3.9266     1.2745 C.3     
  27 H27           -0.8313    -0.5005     0.0073 H       
  28 H28            2.0030    -0.1587    -0.6074 H       
  29 H29            1.9425     0.1217     1.8556 H       
  30 H30            1.0783    -1.4267     2.0107 H       
  31 H31            2.7520    -1.3983     1.4054 H       
  32 H32            2.0273    -2.6458    -0.6753 H       
  33 H33           -0.2850    -1.1866    -2.0727 H       
  34 H34            1.2170    -1.8474    -2.7998 H       
  35 H35           -1.2093    -3.2597    -2.6780 H       
  36 H36            0.3975    -4.0461    -2.7761 H       
  37 H37            0.1765    -4.7991    -0.6212 H       
  38 H38           -4.2003    -6.5409    -0.7931 H       
  39 H39           -4.5567    -2.6294     0.8744 H       
  40 H40           -2.1749    -2.2144     0.4069 H       
  41 H41           -0.9321     3.6018    -2.1132 H       
  42 H42           -0.3581     5.0293    -1.2182 H       
  43 H43            0.6125     3.5373    -1.2309 H       
  44 H44           -3.0798     3.6692     0.9266 H       
  45 H45           -2.5142     5.1064     0.0417 H       
  46 H46           -3.0883     3.6789    -0.8533 H       
  47 H47            0.6243     3.5237     1.2675 H       
  48 H48           -0.3462     5.0157     1.2802 H       
  49 H49           -0.9118     3.5786     2.1651 H       
@<TRIPOS>BOND
   1    1    2 am
   2    1    3 2
   3    1    4 1
   4    2    5 1
   5    2   27 1
   6    4   23 1
   7    5    6 1
   8    5    8 1
   9    5   28 1
  10    6   29 1
  11    6   30 1
  12    6   31 1
  13    7   11 1
  14    7    8 1
  15    8    9 1
  16    8   32 1
  17    9   10 1
  18    9   33 1
  19    9   34 1
  20   10   11 1
  21   10   35 1
  22   10   36 1
  23   11   12 1
  24   11   37 1
  25   12   13 ar
  26   12   17 ar
  27   13   14 ar
  28   13   18 1
  29   14   15 ar
  30   14   38 1
  31   15   16 ar
  32   15   22 1
  33   16   17 ar
  34   16   39 1
  35   17   40 1
  36   18   19 1
  37   18   20 1
  38   18   21 1
  39   23   24 1
  40   23   26 1
  41   23   25 1
  42   24   41 1
  43   24   42 1
  44   24   43 1
  45   25   44 1
  46   25   45 1
  47   25   46 1
  48   26   47 1
  49   26   48 1
  50   26   49 1

#	End of record

