#	Name: ASD01810037
#	Creating user name:	WinNT
#	Creation time:	15. 06. 2019 19:23

#	Modifying user name:	WinNT
#	Modification time:	15. 06. 2019 19:23

#	Program:	/corina/corina34_cracker 3.40 0067  02.08.2006

@<TRIPOS>MOLECULE
ASD01810037
  84   87    0    0    0
SMALL
NO_CHARGES


@<TRIPOS>ATOM
   1 C1             0.3941    -0.2123     2.2740 C.3     
   2 C2             1.4094     0.5024     3.2043 C.3     
   3 C3             2.1982     1.4034     2.2309 C.3     
   4 N4             2.0514     0.8239     0.8831 N.4     
   5 C5             1.2311    -0.4019     0.9844 C.3     
   6 C6             1.3878     1.7912    -0.0013 C.3     
   7 C7             3.3755     0.4894     0.3419 C.3     
   8 C8             4.1863     1.7723     0.1482 C.3     
   9 C9             5.6096     1.4156    -0.2853 C.3     
  10 C10            6.4204     2.6985    -0.4790 C.3     
  11 C11            7.8437     2.3418    -0.9124 C.3     
  12 C12            8.6545     3.6247    -1.1062 C.3     
  13 N13           10.0211     3.2822    -1.5223 N.4     
  14 C14           10.7995     4.5140    -1.7083 C.3     
  15 C15           12.2228     4.1573    -2.1418 C.3     
  16 C16           13.0336     5.4402    -2.3355 C.3     
  17 N17           14.3965     5.0986    -2.7505 N.am    
  18 C18           14.7904     4.9592    -4.0292 C.2     
  19 C19           16.2277     4.6143    -4.0443 C.ar    
  20 C20           16.6270     4.5663    -2.6935 C.ar    
  21 C21           15.4201     4.8888    -1.9033 C.2     
  22 C22           17.1509     4.3579    -5.0453 C.ar    
  23 C23           18.4616     4.0557    -4.7103 C.ar    
  24 C24           18.8532     4.0086    -3.3855 C.ar    
  25 C25           17.9407     4.2630    -2.3736 C.ar    
  26 O26           14.0833     5.0934    -5.0074 O.2     
  27 O27           15.3610     4.9477    -0.6917 O.2     
  28 C28           10.6549     2.4540    -0.4878 C.3     
  29 C29            9.9754     2.5362    -2.7869 C.3     
  30 C30            1.3436     1.2537    -1.3709 C.1     
  31 C31            1.3083     0.8251    -2.4633 C.1     
  32 C32            1.2641     0.2877    -3.8330 C.3     
  33 N33            0.6023     1.2523    -4.7149 N.am    
  34 C34            1.2980     2.3145    -5.4508 C.3     
  35 C35            0.1975     3.3141    -5.8704 C.3     
  36 C36           -1.0555     2.4086    -5.9018 C.3     
  37 C37           -0.7195     1.2746    -4.9586 C.2     
  38 O38           -1.5262     0.5026    -4.4852 O.2     
  39 H39            0.0939    -1.1742     2.6896 H       
  40 H40           -0.4747     0.4186     2.0864 H       
  41 H41            0.8908     1.1034     3.9512 H       
  42 H42            2.0704    -0.2211     3.6814 H       
  43 H43            1.7893     2.4136     2.2468 H       
  44 H44            3.2507     1.4225     2.5137 H       
  45 H45            1.8706    -1.2802     1.0727 H       
  46 H46            0.5769    -0.4934     0.1174 H       
  47 H47            0.3722     1.9693     0.3521 H       
  48 H48            1.9438     2.7287     0.0034 H       
  49 H49            3.8968    -0.1683     1.0375 H       
  50 H50            3.2591    -0.0152    -0.6172 H       
  51 H51            3.7160     2.3869    -0.6195 H       
  52 H52            4.2202     2.3259     1.0865 H       
  53 H53            6.0799     0.8010     0.4824 H       
  54 H54            5.5757     0.8620    -1.2236 H       
  55 H55            5.9501     3.3131    -1.2466 H       
  56 H56            6.4543     3.2521     0.4593 H       
  57 H57            8.3140     1.7272    -0.1448 H       
  58 H58            7.8098     1.7882    -1.8508 H       
  59 H59            8.1842     4.2393    -1.8738 H       
  60 H60            8.6884     4.1783    -0.1678 H       
  61 H61           10.3293     5.1286    -2.4760 H       
  62 H62           10.8335     5.0676    -0.7700 H       
  63 H63           12.6931     3.5427    -1.3741 H       
  64 H64           12.1889     3.6037    -3.0801 H       
  65 H65           12.5634     6.0548    -3.1031 H       
  66 H66           13.0676     5.9938    -1.3972 H       
  67 H67           16.8504     4.3929    -6.0821 H       
  68 H68           19.1817     3.8553    -5.4898 H       
  69 H69           19.8773     3.7721    -3.1371 H       
  70 H70           18.2522     4.2244    -1.3402 H       
  71 H71           10.0772     1.5400    -0.3498 H       
  72 H72           11.6689     2.1998    -0.7966 H       
  73 H73           10.6888     3.0075     0.4506 H       
  74 H74            9.5051     3.1507    -3.5546 H       
  75 H75           10.9893     2.2820    -3.0957 H       
  76 H76            9.3977     1.6222    -2.6489 H       
  77 H77            2.2797     0.1096    -4.1864 H       
  78 H78            0.7081    -0.6498    -3.8377 H       
  79 H79            2.0271     2.8050    -4.8059 H       
  80 H80            1.7897     1.9029    -6.3323 H       
  81 H81            0.0876     4.1066    -5.1302 H       
  82 H82            0.4034     3.7296    -6.8569 H       
  83 H83           -1.9302     2.9553    -5.5493 H       
  84 H84           -1.2241     2.0254    -6.9082 H       
@<TRIPOS>BOND
   1    1    2 1
   2    1    5 1
   3    1   39 1
   4    1   40 1
   5    2    3 1
   6    2   41 1
   7    2   42 1
   8    3    4 1
   9    3   43 1
  10    3   44 1
  11    4    5 1
  12    4    6 1
  13    4    7 1
  14    5   45 1
  15    5   46 1
  16    6   30 1
  17    6   47 1
  18    6   48 1
  19    7    8 1
  20    7   49 1
  21    7   50 1
  22    8    9 1
  23    8   51 1
  24    8   52 1
  25    9   10 1
  26    9   53 1
  27    9   54 1
  28   10   11 1
  29   10   55 1
  30   10   56 1
  31   11   12 1
  32   11   57 1
  33   11   58 1
  34   12   13 1
  35   12   59 1
  36   12   60 1
  37   13   14 1
  38   13   28 1
  39   13   29 1
  40   14   15 1
  41   14   61 1
  42   14   62 1
  43   15   16 1
  44   15   63 1
  45   15   64 1
  46   16   17 1
  47   16   65 1
  48   16   66 1
  49   17   18 am
  50   17   21 am
  51   18   19 1
  52   18   26 2
  53   19   20 ar
  54   19   22 ar
  55   20   21 1
  56   20   25 ar
  57   21   27 2
  58   22   23 ar
  59   22   67 1
  60   23   24 ar
  61   23   68 1
  62   24   25 ar
  63   24   69 1
  64   25   70 1
  65   28   71 1
  66   28   72 1
  67   28   73 1
  68   29   74 1
  69   29   75 1
  70   29   76 1
  71   30   31 3
  72   31   32 1
  73   32   33 1
  74   32   77 1
  75   32   78 1
  76   33   34 1
  77   33   37 am
  78   34   35 1
  79   34   79 1
  80   34   80 1
  81   35   36 1
  82   35   81 1
  83   35   82 1
  84   36   37 1
  85   36   83 1
  86   36   84 1
  87   37   38 2

#	End of record

