#	Name: ASD01911184
#	Creating user name:	WinNT
#	Creation time:	15. 06. 2019 19:57

#	Modifying user name:	WinNT
#	Modification time:	15. 06. 2019 19:57

#	Program:	/corina/corina34_cracker 3.40 0067  02.08.2006

@<TRIPOS>MOLECULE
ASD01911184
  41   44    0    0    0
SMALL
NO_CHARGES


@<TRIPOS>ATOM
   1 C1            -0.0150     1.3127     0.0761 C.ar    
   2 N2             0.0023    -0.0019     0.0491 N.ar    
   3 C3             1.1416    -0.6831     0.0280 C.ar    
   4 C4             2.3650    -0.0172     0.0340 C.ar    
   5 C5             2.3770     1.3687     0.0622 C.ar    
   6 C6             1.1648     2.0401     0.0836 C.ar    
   7 C7             1.1115    -2.1638    -0.0016 C.2     
   8 N8            -0.0691    -2.8138    -0.0070 N.am    
   9 C9            -0.0974    -4.2067    -0.0348 C.ar    
  10 C10           -1.3124    -4.8730     0.0761 C.ar    
  11 C11           -1.3267    -6.2565     0.0470 C.ar    
  12 C12           -0.1195    -6.9286    -0.0927 C.ar    
  13 C13            1.0511    -6.2015    -0.1977 C.ar    
  14 N14            1.0325    -4.8828    -0.1721 N.ar    
  15 C15           -2.5967    -4.0991     0.2265 C.3     
  16 N16           -3.7306    -5.0267     0.2100 N.am    
  17 C17           -4.2009    -5.6730     1.2920 C.2     
  18 C18           -5.3442    -6.5130     0.8786 C.ar    
  19 C19           -5.4951    -6.3040    -0.5076 C.ar    
  20 C20           -4.4419    -5.3398    -0.8880 C.2     
  21 O21           -4.2463    -4.9082    -2.0063 O.2     
  22 O22           -3.7595    -5.5817     2.4198 O.2     
  23 O23            2.1513    -2.7923    -0.0210 O.2     
  24 Br24          -0.0777    -8.8186    -0.1381 Br      
  25 C25           -6.2010    -7.3757     1.5434 C.ar    
  26 C26           -7.2022    -8.0284     0.8397 C.ar    
  27 C27           -7.3504    -7.8231    -0.5220 C.ar    
  28 C28           -6.4990    -6.9627    -1.1993 C.ar    
  29 Cl29          -8.6092    -8.6485    -1.3868 Cl      
  30 Cl30          -8.2761    -9.1099     1.6708 Cl      
  31 H31           -0.9614     1.8327     0.0882 H       
  32 H32            3.2910    -0.5727     0.0171 H       
  33 H33            3.3099     1.9129     0.0678 H       
  34 H34            1.1397     3.1196     0.1055 H       
  35 H35           -0.8991    -2.3121     0.0085 H       
  36 H36           -2.2555    -6.8012     0.1313 H       
  37 H37            1.9926    -6.7194    -0.3061 H       
  38 H38           -2.5852    -3.5561     1.1715 H       
  39 H39           -2.6936    -3.3923    -0.5976 H       
  40 H40           -6.0893    -7.5394     2.6051 H       
  41 H41           -6.6185    -6.8062    -2.2612 H       
@<TRIPOS>BOND
   1    1    2 ar
   2    1    6 ar
   3    1   31 1
   4    2    3 ar
   5    3    4 ar
   6    3    7 1
   7    4    5 ar
   8    4   32 1
   9    5    6 ar
  10    5   33 1
  11    6   34 1
  12    7    8 am
  13    7   23 2
  14    8    9 1
  15    8   35 1
  16    9   10 ar
  17    9   14 ar
  18   10   11 ar
  19   10   15 1
  20   11   12 ar
  21   11   36 1
  22   12   13 ar
  23   12   24 1
  24   13   14 ar
  25   13   37 1
  26   15   16 1
  27   15   38 1
  28   15   39 1
  29   16   17 am
  30   16   20 am
  31   17   18 1
  32   17   22 2
  33   18   19 ar
  34   18   25 ar
  35   19   20 1
  36   19   28 ar
  37   20   21 2
  38   25   26 ar
  39   25   40 1
  40   26   27 ar
  41   26   30 1
  42   27   28 ar
  43   27   29 1
  44   28   41 1

#	End of record

