#	Name: ASD01200165
#	Creating user name:	WinNT
#	Creation time:	15. 06. 2019 19:08

#	Modifying user name:	WinNT
#	Modification time:	15. 06. 2019 19:08

#	Program:	/corina/corina34_cracker 3.40 0067  02.08.2006

@<TRIPOS>MOLECULE
ASD01200165
  52   55    0    0    0
SMALL
NO_CHARGES


@<TRIPOS>ATOM
   1 C1            -0.0184     1.5028     0.0103 C.2     
   2 C2             0.0021    -0.0041     0.0020 C.3     
   3 O3             1.0236     2.1234     0.0037 O.2     
   4 N4            -1.1946     2.1607     0.0195 N.am    
   5 S5            -2.6280     4.5107     0.0390 S.3     
   6 C6            -1.2134     3.5506     0.0271 C.2     
   7 N7            -0.1611     4.3074     0.0270 N.2     
   8 C8            -0.3631     5.6117     0.0356 C.2     
   9 C9            -1.6473     5.9742     0.0434 C.2     
  10 S10            1.7203    -0.5854    -0.0175 S.3     
  11 N11            2.8115    -3.0236    -0.3978 N.am    
  12 C12            1.5403    -2.3904    -0.0255 C.3     
  13 C13            1.2182    -2.8873     1.3646 C.2     
  14 C14            2.2129    -3.7127     1.7238 C.2     
  15 C15            3.1990    -3.7971     0.6331 C.2     
  16 C16            2.3053    -4.4297     3.0194 C.ar    
  17 C17            2.2432    -5.8215     3.0545 C.ar    
  18 C18            2.3302    -6.4832     4.2625 C.ar    
  19 C19            2.4786    -5.7677     5.4370 C.ar    
  20 C20            2.5403    -4.3861     5.4081 C.ar    
  21 C21            2.4602    -3.7142     4.2052 C.ar    
  22 O22            4.2132    -4.4670     0.6600 O.2     
  23 C23            3.5259    -2.8498    -1.6650 C.3     
  24 C24            4.4805    -1.6895    -1.5485 C.ar    
  25 C25            5.7756    -1.9023    -1.1135 C.ar    
  26 C26            6.6525    -0.8403    -1.0058 C.ar    
  27 C27            6.2328     0.4405    -1.3346 C.ar    
  28 C28            4.9328     0.6513    -1.7708 C.ar    
  29 C29            4.0614    -0.4148    -1.8821 C.ar    
  30 O30            7.0934     1.4869    -1.2291 O.3     
  31 C31            6.5926     2.7772    -1.5845 C.3     
  32 H32           -0.4983    -0.3791     0.8948 H       
  33 H33           -0.5153    -0.3696    -0.8850 H       
  34 H34           -2.0280     1.6644     0.0207 H       
  35 H35            0.4455     6.3276     0.0367 H       
  36 H36           -2.0203     6.9877     0.0511 H       
  37 H37            0.7557    -2.6859    -0.7220 H       
  38 H38            0.3528    -2.6274     1.9561 H       
  39 H39            2.1270    -6.3811     2.1382 H       
  40 H40            2.2818    -7.5618     4.2909 H       
  41 H41            2.5462    -6.2896     6.3800 H       
  42 H42            2.6556    -3.8323     6.3281 H       
  43 H43            2.5134    -2.6357     4.1833 H       
  44 H44            4.0838    -3.7575    -1.8950 H       
  45 H45            2.8091    -2.6520    -2.4620 H       
  46 H46            6.1017    -2.8994    -0.8574 H       
  47 H47            7.6639    -1.0069    -0.6657 H       
  48 H48            4.6036     1.6474    -2.0272 H       
  49 H49            3.0507    -0.2519    -2.2261 H       
  50 H50            5.7470     3.0278    -0.9440 H       
  51 H51            7.3792     3.5206    -1.4551 H       
  52 H52            6.2696     2.7675    -2.6255 H       
@<TRIPOS>BOND
   1    1    2 1
   2    1    3 2
   3    1    4 am
   4    2   10 1
   5    2   32 1
   6    2   33 1
   7    4    6 1
   8    4   34 1
   9    5    6 1
  10    5    9 1
  11    6    7 2
  12    7    8 1
  13    8    9 2
  14    8   35 1
  15    9   36 1
  16   10   12 1
  17   11   12 1
  18   11   15 am
  19   11   23 1
  20   12   13 1
  21   12   37 1
  22   13   14 2
  23   13   38 1
  24   14   15 1
  25   14   16 1
  26   15   22 2
  27   16   17 ar
  28   16   21 ar
  29   17   18 ar
  30   17   39 1
  31   18   19 ar
  32   18   40 1
  33   19   20 ar
  34   19   41 1
  35   20   21 ar
  36   20   42 1
  37   21   43 1
  38   23   24 1
  39   23   44 1
  40   23   45 1
  41   24   25 ar
  42   24   29 ar
  43   25   26 ar
  44   25   46 1
  45   26   27 ar
  46   26   47 1
  47   27   28 ar
  48   27   30 1
  49   28   29 ar
  50   28   48 1
  51   29   49 1
  52   30   31 1
  53   31   50 1
  54   31   51 1
  55   31   52 1

#	End of record

