#	Name: ASD01908202
#	Creating user name:	WinNT
#	Creation time:	15. 06. 2019 19:54

#	Modifying user name:	WinNT
#	Modification time:	15. 06. 2019 19:54

#	Program:	/corina/corina34_cracker 3.40 0067  02.08.2006

@<TRIPOS>MOLECULE
ASD01908202
  49   51    0    0    0
SMALL
NO_CHARGES


@<TRIPOS>ATOM
   1 O1            -0.0939     1.4504     0.0372 O.3     
   2 C2            -1.1081     1.5281     0.9235 C.2     
   3 C3            -0.8405     2.5552     1.7828 C.2     
   4 C4             0.3870     3.1062     1.3833 C.2     
   5 C5             0.8097     2.4004     0.3112 C.2     
   6 C6            -2.2905     0.6617     0.9579 C.2     
   7 O7            -3.1435     0.8298     1.8097 O.2     
   8 N8            -2.4328    -0.3208     0.0464 N.am    
   9 C9            -3.5119    -1.2083     0.1364 C.ar    
  10 C10           -4.7446    -0.7593     0.5919 C.ar    
  11 C11           -5.8084    -1.6350     0.6800 C.ar    
  12 C12           -5.6462    -2.9633     0.3135 C.ar    
  13 C13           -4.4148    -3.4127    -0.1413 C.ar    
  14 C14           -3.3516    -2.5368    -0.2353 C.ar    
  15 O15           -6.6941    -3.8251     0.4005 O.3     
  16 C16           -6.7219    -4.6922     1.4462 C.ar    
  17 C17           -5.7514    -4.6196     2.4353 C.ar    
  18 C18           -5.7821    -5.5021     3.4975 C.ar    
  19 C19           -6.7789    -6.4572     3.5758 C.ar    
  20 C20           -7.7469    -6.5321     2.5913 C.ar    
  21 C21           -7.7241    -5.6483     1.5298 C.ar    
  22 C22            2.0875     2.6420    -0.4503 C.3     
  23 H23           -1.4547     2.8806     2.6095 H       
  24 H24            0.8975     3.9382     1.8454 H       
  25 H25           -1.7876    -0.4130    -0.6720 H       
  26 H26           -4.8709     0.2745     0.8776 H       
  27 H27           -6.7670    -1.2860     1.0346 H       
  28 H28           -4.2891    -4.4469    -0.4261 H       
  29 H29           -2.3944    -2.8856    -0.5938 H       
  30 H30           -4.9724    -3.8740     2.3745 H       
  31 H31           -5.0268    -5.4462     4.2674 H       
  32 H32           -6.8011    -7.1463     4.4071 H       
  33 H33           -8.5239    -7.2795     2.6544 H       
  34 H34           -8.4831    -5.7041     0.7636 H       
  35 H35            2.1667     1.9220    -1.2648 H       
  36 H36            2.0818     3.6528    -0.8582 H       
  37 H37            2.9381     2.5260     0.2213 H       
  38 O38           11.0758    12.3720     9.4404 O.3     
  39 C39           11.0941    11.0228     9.4330 C.2     
  40 C40           12.3991    10.6181     9.4184 C.2     
  41 C41           13.1823    11.7822     9.4172 C.2     
  42 C42           12.3328    12.8335     9.4309 C.2     
  43 C43            9.9209    10.1459     9.4400 C.2     
  44 O44           10.0643     8.9382     9.4325 O.2     
  45 O45            8.6813    10.6778     9.4546 O.3     
  46 H46           12.7581     9.5995     9.4095 H       
  47 H47           14.2613    11.8294     9.4071 H       
  48 H48           12.6206    13.8745     9.4334 H       
  49 H49            7.9381    10.0592     9.4587 H       
@<TRIPOS>BOND
   1    1    2 1
   2    1    5 1
   3    2    3 2
   4    2    6 1
   5    3    4 1
   6    3   23 1
   7    4    5 2
   8    4   24 1
   9    5   22 1
  10    6    7 2
  11    6    8 am
  12    8    9 1
  13    8   25 1
  14    9   10 ar
  15    9   14 ar
  16   10   11 ar
  17   10   26 1
  18   11   12 ar
  19   11   27 1
  20   12   13 ar
  21   12   15 1
  22   13   14 ar
  23   13   28 1
  24   14   29 1
  25   15   16 1
  26   16   17 ar
  27   16   21 ar
  28   17   18 ar
  29   17   30 1
  30   18   19 ar
  31   18   31 1
  32   19   20 ar
  33   19   32 1
  34   20   21 ar
  35   20   33 1
  36   21   34 1
  37   22   35 1
  38   22   36 1
  39   22   37 1
  40   38   39 1
  41   38   42 1
  42   39   40 2
  43   39   43 1
  44   40   41 1
  45   40   46 1
  46   41   42 2
  47   41   47 1
  48   42   48 1
  49   43   44 2
  50   43   45 1
  51   45   49 1

#	End of record

