#	Name: ASD01230246
#	Creating user name:	WinNT
#	Creation time:	15. 06. 2019 19:12

#	Modifying user name:	WinNT
#	Modification time:	15. 06. 2019 19:12

#	Program:	/corina/corina34_cracker 3.40 0067  02.08.2006

@<TRIPOS>MOLECULE
ASD01230246
  40   42    0    0    0
SMALL
NO_CHARGES


@<TRIPOS>ATOM
   1 C1            -0.5901     1.9517    -0.1905 C.ar    
   2 C2            -0.4372     0.5838    -0.4567 C.ar    
   3 C3             0.8153     0.1089    -0.8451 C.ar    
   4 C4             1.8607     1.0160    -0.9516 C.ar    
   5 C5             1.6322     2.3512    -0.6722 C.ar    
   6 N6             0.4371     2.7764    -0.3062 N.ar    
   7 N7            -1.8314     2.4454     0.1923 N.pl3   
   8 F8             3.0902     0.5983    -1.3243 F       
   9 C9            -1.5877    -0.3428    -0.3270 C.ar    
  10 C10           -1.8951    -1.2240    -1.3626 C.ar    
  11 C11           -2.9655    -2.0847    -1.2388 C.ar    
  12 C12           -3.7365    -2.0744    -0.0844 C.ar    
  13 C13           -3.4330    -1.1981     0.9487 C.ar    
  14 C14           -2.3607    -0.3385     0.8331 C.ar    
  15 O15           -4.7908    -2.9234     0.0345 O.3     
  16 C16           -4.9757    -3.8787    -1.0121 C.3     
  17 C17           -5.7392    -5.0884    -0.4695 C.3     
  18 C18           -5.9371    -6.1112    -1.5901 C.3     
  19 C19           -6.7358    -5.4726    -2.7282 C.3     
  20 C20           -5.9723    -4.2628    -3.2708 C.3     
  21 C21           -5.7743    -3.2401    -2.1502 C.3     
  22 H22            0.9683    -0.9389    -1.0575 H       
  23 H23            2.4450     3.0576    -0.7544 H       
  24 H24           -2.5882     1.8442     0.2744 H       
  25 H25           -1.9411     3.3912     0.3773 H       
  26 H26           -1.2959    -1.2323    -2.2611 H       
  27 H27           -3.2043    -2.7674    -2.0408 H       
  28 H28           -4.0349    -1.1921     1.8454 H       
  29 H29           -2.1224     0.3399     1.6390 H       
  30 H30           -4.0037    -4.2004    -1.3863 H       
  31 H31           -5.1702    -5.5434     0.3413 H       
  32 H32           -6.7111    -4.7667    -0.0954 H       
  33 H33           -4.9652    -6.4329    -1.9642 H       
  34 H34           -6.4810    -6.9730    -1.2035 H       
  35 H35           -6.8768    -6.2012    -3.5265 H       
  36 H36           -7.7077    -5.1508    -2.3540 H       
  37 H37           -5.0004    -4.5845    -3.6449 H       
  38 H38           -6.5413    -3.8079    -4.0816 H       
  39 H39           -6.7463    -2.9184    -1.7761 H       
  40 H40           -5.2304    -2.3782    -2.5368 H       
@<TRIPOS>BOND
   1    1    2 ar
   2    1    6 ar
   3    1    7 1
   4    2    3 ar
   5    2    9 1
   6    3    4 ar
   7    3   22 1
   8    4    5 ar
   9    4    8 1
  10    5    6 ar
  11    5   23 1
  12    7   24 1
  13    7   25 1
  14    9   10 ar
  15    9   14 ar
  16   10   11 ar
  17   10   26 1
  18   11   12 ar
  19   11   27 1
  20   12   13 ar
  21   12   15 1
  22   13   14 ar
  23   13   28 1
  24   14   29 1
  25   15   16 1
  26   16   17 1
  27   16   21 1
  28   16   30 1
  29   17   18 1
  30   17   31 1
  31   17   32 1
  32   18   19 1
  33   18   33 1
  34   18   34 1
  35   19   20 1
  36   19   35 1
  37   19   36 1
  38   20   21 1
  39   20   37 1
  40   20   38 1
  41   21   39 1
  42   21   40 1

#	End of record

