#	Name: ASD01150815
#	Creating user name:	WinNT
#	Creation time:	15. 06. 2019 19:05

#	Modifying user name:	WinNT
#	Modification time:	15. 06. 2019 19:05

#	Program:	/corina/corina34_cracker 3.40 0067  02.08.2006

@<TRIPOS>MOLECULE
ASD01150815
  57   58    0    0    0
SMALL
NO_CHARGES


@<TRIPOS>ATOM
   1 C1            -0.2246     1.5316    -0.1641 C.2     
   2 C2            -0.1573     0.0596     0.1521 C.3     
   3 N3             0.8922     2.2841    -0.1108 N.am    
   4 C4             0.8013     3.6553    -0.4106 C.3     
   5 C5             1.7348     4.0152    -1.5944 C.3     
   6 N6             3.1058     3.9748    -1.1282 N.3     
   7 C7             3.8079     2.6930    -1.3462 C.3     
   8 C8             2.9597     1.4664    -1.0142 C.3     
   9 C9             2.1674     1.6408     0.2663 C.3     
  10 C10            3.8801     5.0984    -1.6722 C.3     
  11 C11            2.7630     7.7089     0.6681 C.ar    
  12 N12            3.2355     6.5788     0.1814 N.ar    
  13 C13            3.3382     6.3936    -1.1248 C.ar    
  14 C14            2.9410     7.4073    -1.9827 C.ar    
  15 C15            2.4495     8.5808    -1.4335 C.ar    
  16 N16            2.3760     8.6941    -0.1169 N.ar    
  17 C17            2.0050     9.7129    -2.3234 C.3     
  18 S18            5.6209     4.9209    -1.1937 S.3     
  19 C19            6.3889     5.6630    -3.7118 C.3     
  20 C20            6.4291     4.4706    -2.7540 C.3     
  21 C21            7.8842     4.0840    -2.4816 C.3     
  22 C22            7.9235     2.8169    -1.6250 C.3     
  23 C23            9.3785     2.4303    -1.3526 C.3     
  24 C24            9.4178     1.1632    -0.4960 C.3     
  25 O25           -1.2829     2.0380    -0.4714 O.2     
  26 H26           -0.3259    -0.0910     1.2184 H       
  27 H27           -0.9231    -0.4693    -0.4151 H       
  28 H28            0.8260    -0.3254    -0.1182 H       
  29 H29           -0.2274     3.8979    -0.6771 H       
  30 H30            1.0917     4.2351     0.4655 H       
  31 H31            1.6004     3.2928    -2.3994 H       
  32 H32            1.4999     5.0168    -1.9545 H       
  33 H33            4.1110     2.6348    -2.3916 H       
  34 H34            4.7035     2.6761    -0.7251 H       
  35 H35            2.2681     1.2827    -1.8364 H       
  36 H36            3.6156     0.6023    -0.9078 H       
  37 H37            2.7148     2.2782     0.9608 H       
  38 H38            1.9740     0.6704     0.7234 H       
  39 H39            3.8007     5.1018    -2.7593 H       
  40 H40            2.6869     7.8290     1.7387 H       
  41 H41            3.0133     7.2857    -3.0534 H       
  42 H42            0.9469     9.5969    -2.5579 H       
  43 H43            2.1614    10.6616    -1.8099 H       
  44 H44            2.5853     9.6992    -3.2460 H       
  45 H45            6.7966     5.3665    -4.6783 H       
  46 H46            5.3578     5.9930    -3.8382 H       
  47 H47            6.9838     6.4789    -3.3014 H       
  48 H48            5.9067     3.6259    -3.2032 H       
  49 H49            8.3942     3.8994    -3.4271 H       
  50 H50            8.3829     4.8960    -1.9523 H       
  51 H51            7.4135     3.0015    -0.6795 H       
  52 H52            7.4248     2.0049    -2.1543 H       
  53 H53            9.8885     2.2457    -2.2981 H       
  54 H54            9.8772     3.2423    -0.8233 H       
  55 H55           10.4544     0.8878    -0.3020 H       
  56 H56            8.9078     1.3478     0.4495 H       
  57 H57            8.9191     0.3512    -1.0253 H       
@<TRIPOS>BOND
   1    1    2 1
   2    1    3 am
   3    1   25 2
   4    2   26 1
   5    2   27 1
   6    2   28 1
   7    3    4 1
   8    3    9 1
   9    4    5 1
  10    4   29 1
  11    4   30 1
  12    5    6 1
  13    5   31 1
  14    5   32 1
  15    6    7 1
  16    6   10 1
  17    7    8 1
  18    7   33 1
  19    7   34 1
  20    8    9 1
  21    8   35 1
  22    8   36 1
  23    9   37 1
  24    9   38 1
  25   10   13 1
  26   10   18 1
  27   10   39 1
  28   11   12 ar
  29   11   16 ar
  30   11   40 1
  31   12   13 ar
  32   13   14 ar
  33   14   15 ar
  34   14   41 1
  35   15   16 ar
  36   15   17 1
  37   17   42 1
  38   17   43 1
  39   17   44 1
  40   18   20 1
  41   19   20 1
  42   19   45 1
  43   19   46 1
  44   19   47 1
  45   20   21 1
  46   20   48 1
  47   21   22 1
  48   21   49 1
  49   21   50 1
  50   22   23 1
  51   22   51 1
  52   22   52 1
  53   23   24 1
  54   23   53 1
  55   23   54 1
  56   24   55 1
  57   24   56 1
  58   24   57 1

#	End of record

