#	Name: ASD02198110
#	Creating user name:	WinNT
#	Creation time:	15. 06. 2019 20:18

#	Modifying user name:	WinNT
#	Modification time:	15. 06. 2019 20:18

#	Program:	/corina/corina34_cracker 3.40 0067  02.08.2006

@<TRIPOS>MOLECULE
ASD02198110
  43   46    0    0    0
SMALL
NO_CHARGES


@<TRIPOS>ATOM
   1 C1             0.3516     1.3624    -0.2962 C.2     
   2 C2             0.1389     0.0005    -0.2744 C.2     
   3 C3            -1.1339    -0.5863     0.0195 C.1     
   4 S4             1.9744     1.7176    -0.6801 S.3     
   5 C5             2.3837     0.0151    -0.8159 C.2     
   6 C6             1.2747    -0.7537    -0.5650 C.2     
   7 C7             3.6624    -0.4877    -1.1362 C.2     
   8 C8             4.7418     0.4374    -1.5263 C.2     
   9 O9             3.8749    -1.6882    -1.0904 O.2     
  10 N10            1.2833    -2.1407    -0.5968 N.pl3   
  11 N11           -0.6168     2.3080    -0.0473 N.pl3   
  12 N12           -2.1435    -1.0518     0.2527 N.1     
  13 C13            4.6395     1.7772    -1.7318 C.2     
  14 C14           -0.2697     3.6616     0.0299 C.ar    
  15 C15           -1.1469     4.6316    -0.4377 C.ar    
  16 C16            0.9497     4.0361     0.5792 C.ar    
  17 C17            1.2914     5.3718     0.6548 C.ar    
  18 C18            0.4171     6.3397     0.1823 C.ar    
  19 C19           -0.8036     5.9669    -0.3613 C.ar    
  20 O20            0.7544     7.6548     0.2572 O.3     
  21 C21           -0.1934     8.5974    -0.2482 C.3     
  22 O22            5.8338     2.2774    -2.0745 O.3     
  23 C23            6.7761     1.3128    -2.1140 C.ar    
  24 C24            6.1586     0.1018    -1.7683 C.ar    
  25 C25            8.1340     1.3228    -2.4091 C.ar    
  26 C26            8.8567     0.1498    -2.3662 C.ar    
  27 C27            8.2425    -1.0474    -2.0303 C.ar    
  28 C28            6.8983    -1.0759    -1.7264 C.ar    
  29 H29            2.1029    -2.6160    -0.8046 H       
  30 H30            0.4696    -2.6351    -0.4112 H       
  31 H31           -1.5400     2.0364     0.0747 H       
  32 H32            3.7307     2.3524    -1.6337 H       
  33 H33           -2.0971     4.3416    -0.8613 H       
  34 H34            1.6304     3.2827     0.9474 H       
  35 H35            2.2395     5.6632     1.0822 H       
  36 H36           -1.4835     6.7211    -0.7292 H       
  37 H37           -0.3731     8.4009    -1.3051 H       
  38 H38           -1.1289     8.5031     0.3031 H       
  39 H39            0.1990     9.6072    -0.1280 H       
  40 H40            8.6228     2.2492    -2.6723 H       
  41 H41            9.9117     0.1632    -2.5968 H       
  42 H42            8.8204    -1.9593    -2.0008 H       
  43 H43            6.4203    -2.0083    -1.4648 H       
@<TRIPOS>BOND
   1    1    2 2
   2    1    4 1
   3    1   11 1
   4    2    3 1
   5    2    6 1
   6    3   12 3
   7    4    5 1
   8    5    6 2
   9    5    7 1
  10    6   10 1
  11    7    8 1
  12    7    9 2
  13    8   13 2
  14    8   24 1
  15   10   29 1
  16   10   30 1
  17   11   14 1
  18   11   31 1
  19   13   22 1
  20   13   32 1
  21   14   16 ar
  22   14   15 ar
  23   15   19 ar
  24   15   33 1
  25   16   17 ar
  26   16   34 1
  27   17   18 ar
  28   17   35 1
  29   18   19 ar
  30   18   20 1
  31   19   36 1
  32   20   21 1
  33   21   37 1
  34   21   38 1
  35   21   39 1
  36   22   23 1
  37   23   24 ar
  38   23   25 ar
  39   24   28 ar
  40   25   26 ar
  41   25   40 1
  42   26   27 ar
  43   26   41 1
  44   27   28 ar
  45   27   42 1
  46   28   43 1

#	End of record

