#	Name: ASD01870343
#	Creating user name:	WinNT
#	Creation time:	15. 06. 2019 19:39

#	Modifying user name:	WinNT
#	Modification time:	15. 06. 2019 19:39

#	Program:	/corina/corina34_cracker 3.40 0067  02.08.2006

@<TRIPOS>MOLECULE
ASD01870343
  51   54    0    0    0
SMALL
NO_CHARGES


@<TRIPOS>ATOM
   1 N1            -0.0179     1.4666     0.0101 N.am    
   2 C2             0.0021    -0.0041     0.0020 C.3     
   3 C3            -0.8912    -0.5093     1.1400 C.3     
   4 N4            -2.2247     0.0945     1.0165 N.3     
   5 C5            -2.1640     1.5549     1.1632 C.3     
   6 C6            -1.3228     2.1447     0.0324 C.3     
   7 C7            -3.1112    -0.4624     1.9332 C.ar    
   8 C8            -4.4384    -0.0378     1.9940 C.ar    
   9 C9            -5.2849    -0.6150     2.9168 C.ar    
  10 N10           -4.8532    -1.5565     3.7351 N.ar    
  11 C11           -3.6052    -1.9854     3.7087 C.ar    
  12 C12           -2.6973    -1.4639     2.8113 C.ar    
  13 C13            1.1293     2.1740     0.0030 C.2     
  14 C14            1.0857     3.6803     0.0115 C.3     
  15 O15            2.1967     1.5983    -0.0103 O.2     
  16 C16            2.4763     4.3407     0.0017 C.3     
  17 N17            1.9076     5.2908    -0.9739 N.am    
  18 C18            0.8907     4.3026    -1.3830 C.3     
  19 S19            2.2664     6.8425    -1.4275 S.o2    
  20 C20            3.4250     6.7442    -2.7514 C.2     
  21 C21            3.9710     7.7793    -3.3969 C.2     
  22 O22            1.0740     7.3858    -1.9773 O.2     
  23 O23            2.9563     7.4310    -0.3334 O.2     
  24 S24            4.0742     5.2641    -3.4531 S.3     
  25 C25            5.0092     6.1840    -4.5497 C.2     
  26 N26            4.8129     7.4441    -4.3537 N.2     
  27 C27            5.9335     5.6068    -5.5907 C.3     
  28 C28            3.6498     9.2123    -3.0586 C.3     
  29 F29            4.5433     9.6733    -2.0859 F       
  30 F30            3.7654    10.0001    -4.2089 F       
  31 F31            2.3425     9.2936    -2.5671 F       
  32 H32           -0.3778    -0.3702    -0.9518 H       
  33 H33            1.0222    -0.3573     0.1529 H       
  34 H34           -0.9764    -1.5943     1.0812 H       
  35 H35           -0.4527    -0.2298     2.0980 H       
  36 H36           -3.1723     1.9669     1.1212 H       
  37 H37           -1.7078     1.8056     2.1209 H       
  38 H38           -1.1798     3.2121     0.2008 H       
  39 H39           -1.8275     1.9859    -0.9206 H       
  40 H40           -4.7979     0.7326     1.3279 H       
  41 H41           -6.3142    -0.2925     2.9710 H       
  42 H42           -3.2923    -2.7578     4.3957 H       
  43 H43           -1.6776    -1.8195     2.7948 H       
  44 H44            0.4145     4.0817     0.7708 H       
  45 H45            2.7518     4.7987     0.9517 H       
  46 H46            3.2612     3.7060    -0.4094 H       
  47 H47            1.2098     3.6567    -2.2009 H       
  48 H48           -0.0998     4.7302    -1.5387 H       
  49 H49            5.3827     5.4480    -6.5178 H       
  50 H50            6.7558     6.2993    -5.7707 H       
  51 H51            6.3306     4.6554    -5.2366 H       
@<TRIPOS>BOND
   1    1    2 1
   2    1   13 am
   3    1    6 1
   4    2    3 1
   5    2   32 1
   6    2   33 1
   7    3    4 1
   8    3   34 1
   9    3   35 1
  10    4    5 1
  11    4    7 1
  12    5    6 1
  13    5   36 1
  14    5   37 1
  15    6   38 1
  16    6   39 1
  17    7    8 ar
  18    7   12 ar
  19    8    9 ar
  20    8   40 1
  21    9   10 ar
  22    9   41 1
  23   10   11 ar
  24   11   12 ar
  25   11   42 1
  26   12   43 1
  27   13   14 1
  28   13   15 2
  29   14   16 1
  30   14   18 1
  31   14   44 1
  32   16   17 1
  33   16   45 1
  34   16   46 1
  35   17   18 1
  36   17   19 am
  37   18   47 1
  38   18   48 1
  39   19   20 1
  40   19   22 2
  41   19   23 2
  42   20   24 1
  43   20   21 2
  44   21   28 1
  45   21   26 1
  46   24   25 1
  47   25   26 2
  48   25   27 1
  49   27   49 1
  50   27   50 1
  51   27   51 1
  52   28   29 1
  53   28   30 1
  54   28   31 1

#	End of record

