#	Name: ASD01912829
#	Creating user name:	WinNT
#	Creation time:	15. 06. 2019 20:00

#	Modifying user name:	WinNT
#	Modification time:	15. 06. 2019 20:00

#	Program:	/corina/corina34_cracker 3.40 0067  02.08.2006

@<TRIPOS>MOLECULE
ASD01912829
  39   42    0    0    0
SMALL
NO_CHARGES


@<TRIPOS>ATOM
   1 C1            -0.0165     1.3681     0.0096 C.2     
   2 N2             0.0021    -0.0041     0.0020 N.pl3   
   3 C3            -1.2031    -0.6916     0.0094 C.2     
   4 C4            -2.3632    -0.0482     0.0231 C.2     
   5 N5            -2.4354     1.3313     0.0307 N.am    
   6 C6            -1.3016     2.0674     0.0309 C.2     
   7 C7             2.0555     0.6105    -0.0143 C.2     
   8 N8             1.2242    -0.4046    -0.0118 N.2     
   9 O9            -1.3488     3.2844     0.0376 O.2     
  10 C10           -3.7406     1.9964     0.0454 C.3     
  11 C11            3.5599     0.5233    -0.0291 C.3     
  12 O12            4.0225     0.5025    -1.3810 O.3     
  13 C13            5.3658     0.4254    -1.5723 C.ar    
  14 C14            5.8841     0.4010    -2.8589 C.ar    
  15 C15            7.2499     0.3227    -3.0507 C.ar    
  16 C16            8.1001     0.2686    -1.9618 C.ar    
  17 C17            7.5860     0.2923    -0.6785 C.ar    
  18 C18            6.2213     0.3768    -0.4813 C.ar    
  19 C19           -4.1826     2.2206     1.4929 C.3     
  20 C20           -5.4724     3.0105     1.7235 C.3     
  21 C21           -5.4468     1.4999     1.9653 C.3     
  22 C22            1.3022     1.7846    -0.0008 C.2     
  23 Cl23           1.8930     3.4169     0.0028 Cl      
  24 H24           -1.1967    -1.7716     0.0035 H       
  25 H25           -3.2791    -0.6204     0.0281 H       
  26 H26           -3.6647     2.9569    -0.4643 H       
  27 H27           -4.4729     1.3709    -0.4653 H       
  28 H28            3.9790     1.3883     0.4850 H       
  29 H29            3.8760    -0.3887     0.4772 H       
  30 H30            5.2203     0.4429    -3.7099 H       
  31 H31            7.6539     0.3033    -4.0522 H       
  32 H32            9.1676     0.2073    -2.1138 H       
  33 H33            8.2522     0.2492     0.1705 H       
  34 H34            5.8202     0.3953     0.5213 H       
  35 H35           -3.3770     2.3503     2.2157 H       
  36 H36           -5.5156     3.6595     2.5981 H       
  37 H37           -6.0062     3.3704     0.8439 H       
  38 H38           -5.9638     0.8661     1.2448 H       
  39 H39           -5.4732     1.1552     2.9990 H       
@<TRIPOS>BOND
   1    1    2 1
   2    1   22 2
   3    1    6 1
   4    2    3 1
   5    2    8 1
   6    3    4 2
   7    3   24 1
   8    4    5 1
   9    4   25 1
  10    5    6 am
  11    5   10 1
  12    6    9 2
  13    7    8 2
  14    7   11 1
  15    7   22 1
  16   10   19 1
  17   10   26 1
  18   10   27 1
  19   11   12 1
  20   11   28 1
  21   11   29 1
  22   12   13 1
  23   13   14 ar
  24   13   18 ar
  25   14   15 ar
  26   14   30 1
  27   15   16 ar
  28   15   31 1
  29   16   17 ar
  30   16   32 1
  31   17   18 ar
  32   17   33 1
  33   18   34 1
  34   19   20 1
  35   19   21 1
  36   19   35 1
  37   20   21 1
  38   20   36 1
  39   20   37 1
  40   21   38 1
  41   21   39 1
  42   22   23 1

#	End of record

