#	Name: ASD02440057
#	Creating user name:	WinNT
#	Creation time:	15. 06. 2019 20:21

#	Modifying user name:	WinNT
#	Modification time:	15. 06. 2019 20:21

#	Program:	/corina/corina34_cracker 3.40 0067  02.08.2006

@<TRIPOS>MOLECULE
ASD02440057
  40   42    0    0    0
SMALL
NO_CHARGES


@<TRIPOS>ATOM
   1 C1            -0.0166     1.3743     0.0096 C.ar    
   2 C2             0.0757    -4.2699    -0.0345 C.ar    
   3 C3             1.3221    -6.4464    -0.0537 C.3     
   4 C4             2.4585    -2.8474    -0.0373 C.ar    
   5 C5            -3.1575    -6.1371    -0.7574 C.2     
   6 C6             2.4134     4.2338     0.0018 C.3     
   7 N7             1.1560     3.4821     0.0097 N.pl3   
   8 C8             1.1772     2.0867     0.0020 C.ar    
   9 C9             2.3920     1.4110    -0.0128 C.ar    
  10 C10            2.4151     0.0326    -0.0204 C.ar    
  11 C11            1.2192    -0.6836    -0.0133 C.ar    
  12 C12            0.0021    -0.0041     0.0020 C.ar    
  13 C13            1.2417    -2.1669    -0.0220 C.ar    
  14 C14            0.0477    -2.8830    -0.0206 C.ar    
  15 C15            1.2933    -4.9397    -0.0444 C.ar    
  16 C16            2.4779    -4.2276    -0.0458 C.ar    
  17 N17           -1.1196    -4.9929    -0.0326 N.am    
  18 C18           -1.9527    -5.3622    -1.1844 C.3     
  19 O19           -3.9851    -6.5450    -1.5445 O.2     
  20 N20           -3.2489    -6.3508     0.5628 N.am    
  21 S21           -1.9276    -5.6346     1.2783 S.o2    
  22 O22           -1.1170    -6.6784     1.8005 O.2     
  23 O23           -2.4086    -4.5426     2.0499 O.2     
  24 H24           -0.9593     1.9011     0.0259 H       
  25 H25            1.3241    -6.8034    -1.0836 H       
  26 H26            2.2213    -6.7957     0.4536 H       
  27 H27            0.4417    -6.8298     0.4620 H       
  28 H28            3.3862    -2.2945    -0.0388 H       
  29 H29            2.9804     3.9840    -0.8950 H       
  30 H30            2.1980     5.3023     0.0096 H       
  31 H31            2.9974     3.9745     0.8848 H       
  32 H32            0.3087     3.9543     0.0204 H       
  33 H33            3.3183     1.9662    -0.0186 H       
  34 H34            3.3591    -0.4919    -0.0323 H       
  35 H35           -0.9256    -0.5571     0.0079 H       
  36 H36           -0.8973    -2.3604    -0.0091 H       
  37 H37            3.4216    -4.7527    -0.0576 H       
  38 H38           -1.3631    -5.9690    -1.8716 H       
  39 H39           -2.2745    -4.4560    -1.6974 H       
  40 H40           -3.9562    -6.8340     1.0180 H       
@<TRIPOS>BOND
   1    1   12 ar
   2    1    8 ar
   3    1   24 1
   4    2   17 1
   5    2   14 ar
   6    2   15 ar
   7    3   25 1
   8    3   26 1
   9    3   27 1
  10    3   15 1
  11    4   16 ar
  12    4   13 ar
  13    4   28 1
  14    5   19 2
  15    5   20 am
  16    5   18 1
  17    6   29 1
  18    6   30 1
  19    6   31 1
  20    6    7 1
  21    7    8 1
  22    7   32 1
  23    8    9 ar
  24    9   10 ar
  25    9   33 1
  26   10   34 1
  27   10   11 ar
  28   11   13 1
  29   11   12 ar
  30   12   35 1
  31   13   14 ar
  32   14   36 1
  33   15   16 ar
  34   16   37 1
  35   17   21 am
  36   17   18 1
  37   18   38 1
  38   18   39 1
  39   20   40 1
  40   20   21 am
  41   21   23 2
  42   21   22 2

#	End of record

