#	Name: ASD01880638
#	Creating user name:	WinNT
#	Creation time:	15. 06. 2019 19:41

#	Modifying user name:	WinNT
#	Modification time:	15. 06. 2019 19:41

#	Program:	/corina/corina34_cracker 3.40 0067  02.08.2006

@<TRIPOS>MOLECULE
ASD01880638
  42   44    0    0    0
SMALL
NO_CHARGES


@<TRIPOS>ATOM
   1 N1            -0.0158     1.3115     0.0093 N.ar    
   2 C2             0.0021    -0.0041     0.0020 C.ar    
   3 N3             1.1309    -0.6861    -0.0124 N.ar    
   4 C4             2.3010    -0.0695    -0.0203 C.ar    
   5 C5             2.3346     1.3162    -0.0132 C.ar    
   6 C6             1.1204     2.0073     0.0021 C.ar    
   7 C7             3.6464     2.0579    -0.0212 C.3     
   8 O8             4.0487     2.2996    -1.3710 O.3     
   9 C9             5.2182     2.9628    -1.5559 C.ar    
  10 C10            5.6687     3.2311    -2.8448 C.ar    
  11 C11            6.8517     3.9024    -3.0306 C.ar    
  12 C12            7.6090     4.3195    -1.9309 C.ar    
  13 C13            7.1517     4.0478    -0.6385 C.ar    
  14 C14            5.9618     3.3783    -0.4579 C.ar    
  15 C15            7.6073     4.3427    -4.2596 C.3     
  16 N16            8.8154     5.0212    -3.7765 N.am    
  17 C17            8.8123     5.0056    -2.4326 C.2     
  18 O18            9.6792     5.4892    -1.7306 O.2     
  19 C19            3.5817    -0.8636    -0.0363 C.3     
  20 C20           10.5904     7.7027    -5.7827 C.3     
  21 C21            9.5055     7.0802    -4.9015 C.3     
  22 C22            9.8541     5.6173    -4.6203 C.3     
  23 C23            1.0975     3.4391     0.0100 C.1     
  24 N24            1.0793     4.5749     0.0163 N.1     
  25 H25           -0.9349    -0.5411     0.0084 H       
  26 H26            3.5294     3.0087     0.4988 H       
  27 H27            4.4053     1.4593     0.4825 H       
  28 H28            5.0887     2.9114    -3.6979 H       
  29 H29            7.7290     4.3651     0.2173 H       
  30 H30            5.6088     3.1689     0.5411 H       
  31 H31            7.8798     3.4764    -4.8623 H       
  32 H32            6.9997     5.0318    -4.8462 H       
  33 H33            3.8809    -1.0498    -1.0677 H       
  34 H34            4.3643    -0.3012     0.4731 H       
  35 H35            3.4264    -1.8140     0.4743 H       
  36 H36           11.5503     7.6502    -5.2690 H       
  37 H37           10.6517     7.1564    -6.7240 H       
  38 H38           10.3420     8.7450    -5.9831 H       
  39 H39            9.4442     7.6265    -3.9603 H       
  40 H40            8.5456     7.1327    -5.4153 H       
  41 H41           10.8140     5.5647    -4.1065 H       
  42 H42            9.9154     5.0710    -5.5615 H       
@<TRIPOS>BOND
   1    1    2 ar
   2    1    6 ar
   3    2    3 ar
   4    2   25 1
   5    3    4 ar
   6    4    5 ar
   7    4   19 1
   8    5    6 ar
   9    5    7 1
  10    6   23 1
  11    7    8 1
  12    7   26 1
  13    7   27 1
  14    8    9 1
  15    9   10 ar
  16    9   14 ar
  17   10   11 ar
  18   10   28 1
  19   11   12 ar
  20   11   15 1
  21   12   13 ar
  22   12   17 1
  23   13   14 ar
  24   13   29 1
  25   14   30 1
  26   15   16 1
  27   15   31 1
  28   15   32 1
  29   16   17 am
  30   16   22 1
  31   17   18 2
  32   19   33 1
  33   19   34 1
  34   19   35 1
  35   20   21 1
  36   20   36 1
  37   20   37 1
  38   20   38 1
  39   21   22 1
  40   21   39 1
  41   21   40 1
  42   22   41 1
  43   22   42 1
  44   23   24 3

#	End of record

