#	Name: ASD02500187
#	Creating user name:	WinNT
#	Creation time:	15. 06. 2019 20:22

#	Modifying user name:	WinNT
#	Modification time:	15. 06. 2019 20:22

#	Program:	/corina/corina34_cracker 3.40 0067  02.08.2006

@<TRIPOS>MOLECULE
ASD02500187
  62   66    0    0    0
SMALL
NO_CHARGES


@<TRIPOS>ATOM
   1 N1            -5.1942     4.9306     0.7614 N.ar    
   2 C2            -6.4041     5.4049     0.5895 C.ar    
   3 C3            -7.4714     4.9979     1.3874 C.ar    
   4 C4            -7.2701     4.0809     2.3792 C.ar    
   5 C5            -5.9696     3.5733     2.5606 C.ar    
   6 C6            -5.6862     2.6286     3.5596 C.ar    
   7 C7            -4.4149     2.1621     3.7034 C.ar    
   8 C8            -3.3907     2.6103     2.8722 C.ar    
   9 C9            -3.6301     3.5255     1.8936 C.ar    
  10 C10           -4.9294     4.0307     1.7139 C.ar    
  11 S11           -2.3160     4.0756     0.8566 S.o2    
  12 O12           -2.3582     5.4959     0.8749 O.2     
  13 O13           -1.1681     3.3272     1.2325 O.2     
  14 N14           -2.6875     3.6167    -0.6906 N.am    
  15 C15           -2.7074     2.2684    -1.0300 C.ar    
  16 C16           -2.3274     1.8682    -2.3083 C.ar    
  17 C17           -2.3460     0.5348    -2.6473 C.ar    
  18 C18           -2.7470    -0.4186    -1.7065 C.ar    
  19 C19           -3.1278    -0.0136    -0.4240 C.ar    
  20 C20           -3.1016     1.3211    -0.0894 C.ar    
  21 C21           -1.8958     2.8965    -3.3219 C.3     
  22 C22           -2.7685    -1.8490    -2.0668 C.2     
  23 O23           -3.2069    -2.1975    -3.1461 O.2     
  24 N24           -2.3023    -2.7694    -1.1997 N.am    
  25 C25           -2.2279    -4.1866    -1.5815 C.3     
  26 C26           -0.7882    -4.6743    -1.3772 C.3     
  27 N27           -0.3447    -4.2786    -0.0331 N.am    
  28 C28           -0.4191    -2.8614     0.3487 C.3     
  29 C29           -1.8535    -2.3729     0.1424 C.3     
  30 C30            0.1215    -5.1991     0.8340 C.2     
  31 C31            0.6632    -4.7745     2.1425 C.ar    
  32 C32            1.3703    -3.5721     2.2637 C.ar    
  33 C33            1.8565    -3.2200     3.5115 C.ar    
  34 C34            1.6297    -4.0604     4.5884 C.ar    
  35 N35            0.9600    -5.1876     4.4430 N.ar    
  36 C36            0.4733    -5.5624     3.2781 C.ar    
  37 O37            0.0967    -6.3783     0.5403 O.2     
  38 Cl38           2.7411    -1.7414     3.7233 Cl      
  39 H39           -6.5781     6.1308    -0.1910 H       
  40 H40           -8.4569     5.4075     1.2218 H       
  41 H41           -8.0859     3.7545     3.0072 H       
  42 H42           -6.4717     2.2742     4.2106 H       
  43 H43           -4.1978     1.4353     4.4722 H       
  44 H44           -2.3906     2.2256     3.0067 H       
  45 H45           -2.8912     4.2884    -1.3600 H       
  46 H46           -2.0515     0.2250    -3.6391 H       
  47 H47           -3.4380    -0.7477     0.3048 H       
  48 H48           -3.3912     1.6343     0.9029 H       
  49 H49           -0.8193     3.0503    -3.2477 H       
  50 H50           -2.1447     2.5461    -4.3236 H       
  51 H51           -2.4114     3.8370    -3.1275 H       
  52 H52           -2.9039    -4.7699    -0.9562 H       
  53 H53           -2.5068    -4.2983    -2.6293 H       
  54 H54           -0.7532    -5.7598    -1.4692 H       
  55 H55           -0.1385    -4.2201    -2.1253 H       
  56 H56           -0.1402    -2.7497     1.3965 H       
  57 H57            0.2569    -2.2781    -0.2765 H       
  58 H58           -1.8852    -1.2871     0.2329 H       
  59 H59           -2.5023    -2.8241     0.8932 H       
  60 H60            1.5326    -2.9360     1.4062 H       
  61 H61            2.0075    -3.7888     5.5631 H       
  62 H62           -0.0737    -6.4903     3.2003 H       
@<TRIPOS>BOND
   1    1    2 ar
   2    1   10 ar
   3    2    3 ar
   4    2   39 1
   5    3    4 ar
   6    3   40 1
   7    4    5 ar
   8    4   41 1
   9    5    6 ar
  10    5   10 ar
  11    6    7 ar
  12    6   42 1
  13    7    8 ar
  14    7   43 1
  15    8    9 ar
  16    8   44 1
  17    9   10 ar
  18    9   11 1
  19   11   12 2
  20   11   13 2
  21   11   14 am
  22   14   15 1
  23   14   45 1
  24   15   16 ar
  25   15   20 ar
  26   16   17 ar
  27   16   21 1
  28   17   18 ar
  29   17   46 1
  30   18   19 ar
  31   18   22 1
  32   19   20 ar
  33   19   47 1
  34   20   48 1
  35   21   49 1
  36   21   50 1
  37   21   51 1
  38   22   23 2
  39   22   24 am
  40   24   25 1
  41   24   29 1
  42   25   26 1
  43   25   52 1
  44   25   53 1
  45   26   27 1
  46   26   54 1
  47   26   55 1
  48   27   28 1
  49   27   30 am
  50   28   29 1
  51   28   56 1
  52   28   57 1
  53   29   58 1
  54   29   59 1
  55   30   31 1
  56   30   37 2
  57   31   32 ar
  58   31   36 ar
  59   32   33 ar
  60   32   60 1
  61   33   34 ar
  62   33   38 1
  63   34   35 ar
  64   34   61 1
  65   35   36 ar
  66   36   62 1

#	End of record

