#	Name: ASD05313215
#	Creating user name:	WinNT
#	Creation time:	15. 06. 2019 20:58

#	Modifying user name:	WinNT
#	Modification time:	15. 06. 2019 20:58

#	Program:	/corina/corina34_cracker 3.40 0067  02.08.2006

@<TRIPOS>MOLECULE
ASD05313215
  39   41    0    0    0
SMALL
NO_CHARGES


@<TRIPOS>ATOM
   1 C1            -0.0739     0.8177     1.0270 C.2     
   2 C2             0.1130    -0.6202     0.5980 C.3     
   3 N3             0.9269     1.7298     1.0535 N.pl3   
   4 N4             1.4557    -0.7208    -0.0032 N.am    
   5 C5             2.5695    -0.0397     0.6742 C.3     
   6 C6             2.3150     1.4718     0.6647 C.3     
   7 N7            -1.1709     1.3883     1.4276 N.2     
   8 C8            -0.9164     2.6731     1.7249 C.2     
   9 C9             0.3926     2.9036     1.4978 C.2     
  10 C10           -1.9183     3.6805     2.2272 C.3     
  11 C11           -3.1000     3.7514     1.2581 C.3     
  12 C12            1.6565    -1.4168    -1.1398 C.2     
  13 O13            2.7485    -1.4068    -1.6737 O.2     
  14 C14            0.5491    -2.1920    -1.7369 C.ar    
  15 C15            0.3191    -2.1405    -3.1142 C.ar    
  16 C16           -0.7179    -2.8678    -3.6649 C.ar    
  17 C17           -1.5272    -3.6448    -2.8560 C.ar    
  18 C18           -1.3046    -3.6993    -1.4913 C.ar    
  19 C19           -0.2684    -2.9835    -0.9285 C.ar    
  20 C20           -0.9683    -2.8143    -5.1499 C.3     
  21 F21           -2.0624    -3.6262    -5.4679 F       
  22 F22           -1.2403    -1.4956    -5.5298 F       
  23 F23            0.1651    -3.2715    -5.8308 F       
  24 Cl24           1.3336    -1.1648    -4.1303 Cl      
  25 H25            0.0432    -1.2786     1.4639 H       
  26 H26           -0.6448    -0.8902    -0.1375 H       
  27 H27            2.6391    -0.3908     1.7037 H       
  28 H28            3.5009    -0.2556     0.1508 H       
  29 H29            2.4915     1.8643    -0.3367 H       
  30 H30            2.9873     1.9587     1.3711 H       
  31 H31            0.9171     3.8365     1.6423 H       
  32 H32           -2.2739     3.3789     3.2125 H       
  33 H33           -1.4453     4.6601     2.2959 H       
  34 H34           -2.7443     4.0530     0.2728 H       
  35 H35           -3.5730     2.7718     1.1895 H       
  36 H36           -3.8247     4.4801     1.6214 H       
  37 H37           -2.3370    -4.2114    -3.2915 H       
  38 H38           -1.9410    -4.3076    -0.8657 H       
  39 H39           -0.0931    -3.0314     0.1361 H       
@<TRIPOS>BOND
   1    1    2 1
   2    1    3 1
   3    1    7 2
   4    2    4 1
   5    2   25 1
   6    2   26 1
   7    3    6 1
   8    3    9 1
   9    4    5 1
  10    4   12 am
  11    5    6 1
  12    5   27 1
  13    5   28 1
  14    6   29 1
  15    6   30 1
  16    7    8 1
  17    8    9 2
  18    8   10 1
  19    9   31 1
  20   10   11 1
  21   10   32 1
  22   10   33 1
  23   11   34 1
  24   11   35 1
  25   11   36 1
  26   12   13 2
  27   12   14 1
  28   14   15 ar
  29   14   19 ar
  30   15   16 ar
  31   15   24 1
  32   16   17 ar
  33   16   20 1
  34   17   18 ar
  35   17   37 1
  36   18   19 ar
  37   18   38 1
  38   19   39 1
  39   20   21 1
  40   20   22 1
  41   20   23 1

#	End of record

