#	Name: ASD01910548
#	Creating user name:	WinNT
#	Creation time:	15. 06. 2019 19:56

#	Modifying user name:	WinNT
#	Modification time:	15. 06. 2019 19:56

#	Program:	/corina/corina34_cracker 3.40 0067  02.08.2006

@<TRIPOS>MOLECULE
ASD01910548
  42   45    0    0    0
SMALL
NO_CHARGES


@<TRIPOS>ATOM
   1 N1             0.0302     1.1880     0.2891 N.2     
   2 C2             0.0262    -0.1114     0.1205 C.2     
   3 N3             1.3188    -0.5070     0.0448 N.2     
   4 C4             2.0289     0.5855     0.1732 C.2     
   5 O5             1.1706     1.5996     0.3210 O.3     
   6 C6            -1.1649    -0.9814     0.0307 C.2     
   7 C7            -2.4635    -0.5747     0.1083 C.2     
   8 C8            -3.2675    -1.7169    -0.0249 C.2     
   9 C9            -2.4480    -2.7806    -0.1789 C.2     
  10 N10           -1.1601    -2.3415    -0.1515 N.pl3   
  11 C11            4.0568     0.2784    -1.2241 C.3     
  12 C12            3.5328     0.6816     0.1578 C.3     
  13 C13            3.9558     2.1211     0.4592 C.3     
  14 C14            5.4833     2.2129     0.4762 C.3     
  15 C15            6.0294     1.8270    -0.9021 C.3     
  16 N16            5.5085     0.5015    -1.2630 N.am    
  17 C17            6.3464    -0.4911    -1.6225 C.2     
  18 C18            7.7894    -0.2180    -1.7822 C.ar    
  19 O19            5.9147    -1.6110    -1.8154 O.2     
  20 C20            8.7323    -1.1313    -1.3057 C.ar    
  21 C21           10.0774    -0.8718    -1.4577 C.ar    
  22 C22           10.4950     0.2935    -2.0824 C.ar    
  23 C23            9.5630     1.2038    -2.5570 C.ar    
  24 C24            8.2154     0.9515    -2.4154 C.ar    
  25 F25           11.8147     0.5429    -2.2288 F       
  26 F26            4.0660    -0.1745     1.1273 F       
  27 H27           -2.8095     0.4389     0.2471 H       
  28 H28           -4.3470    -1.7417    -0.0073 H       
  29 H29           -2.7624    -3.8060    -0.3057 H       
  30 H30           -0.3705    -2.8978    -0.2400 H       
  31 H31            3.8442    -0.7758    -1.4022 H       
  32 H32            3.5732     0.8852    -1.9896 H       
  33 H33            3.5607     2.7844    -0.3103 H       
  34 H34            3.5633     2.4189     1.4315 H       
  35 H35            5.7839     3.2333     0.7140 H       
  36 H36            5.8804     1.5314     1.2286 H       
  37 H37            5.7067     2.5602    -1.6413 H       
  38 H38            7.1184     1.7947    -0.8677 H       
  39 H39            8.4081    -2.0391    -0.8186 H       
  40 H40           10.8075    -1.5772    -1.0892 H       
  41 H41            9.8936     2.1101    -3.0425 H       
  42 H42            7.4903     1.6611    -2.7857 H       
@<TRIPOS>BOND
   1    1    2 2
   2    1    5 1
   3    2    3 1
   4    2    6 1
   5    3    4 2
   6    4    5 1
   7    4   12 1
   8    6    7 2
   9    6   10 1
  10    7    8 1
  11    7   27 1
  12    8    9 2
  13    8   28 1
  14    9   10 1
  15    9   29 1
  16   10   30 1
  17   11   12 1
  18   11   16 1
  19   11   31 1
  20   11   32 1
  21   12   13 1
  22   12   26 1
  23   13   14 1
  24   13   33 1
  25   13   34 1
  26   14   15 1
  27   14   35 1
  28   14   36 1
  29   15   16 1
  30   15   37 1
  31   15   38 1
  32   16   17 am
  33   17   18 1
  34   17   19 2
  35   18   20 ar
  36   18   24 ar
  37   20   21 ar
  38   20   39 1
  39   21   22 ar
  40   21   40 1
  41   22   23 ar
  42   22   25 1
  43   23   24 ar
  44   23   41 1
  45   24   42 1

#	End of record

