#	Name: ASD01883494
#	Creating user name:	WinNT
#	Creation time:	15. 06. 2019 19:46

#	Modifying user name:	WinNT
#	Modification time:	15. 06. 2019 19:46

#	Program:	/corina/corina34_cracker 3.40 0067  02.08.2006

@<TRIPOS>MOLECULE
ASD01883494
  61   63    0    0    0
SMALL
NO_CHARGES


@<TRIPOS>ATOM
   1 N1             0.2024     0.7645     0.4212 N.am    
   2 C2            -0.8578     1.5927     0.4637 C.2     
   3 C3            -2.1683     1.0662     0.3775 C.2     
   4 C4            -2.3300    -0.3236     0.2484 C.2     
   5 C5            -1.1826    -1.1374     0.2098 C.2     
   6 C6             0.0446    -0.5784     0.2912 C.2     
   7 O7            -0.6891     2.7951     0.5767 O.2     
   8 C8            -3.3075     1.9327     0.4216 C.1     
   9 N9            -4.2112     2.6201     0.4565 N.1     
  10 C10            1.5537     1.3232     0.5110 C.3     
  11 C11            1.9817     1.3896     1.9784 C.3     
  12 C12            3.3930     1.9730     2.0721 C.3     
  13 C13            3.3779     3.4246     1.5888 C.3     
  14 C14            3.8695     1.9243     3.5252 C.3     
  15 N15           -3.5870    -0.8786     0.1617 N.pl3   
  16 C16           -4.8566    -0.1499     0.2977 C.3     
  17 C17           -5.9949    -1.1820     0.1541 C.3     
  18 C18           -5.2967    -2.5211     0.5098 C.3     
  19 C19           -3.8828    -2.3009    -0.0891 C.3     
  20 N20           -7.0802    -0.8940     1.1014 N.3     
  21 C21           -7.6826     0.4178     0.8288 C.3     
  22 C22           -8.6137     0.7867     1.9548 C.ar    
  23 C23           -8.1360     1.4904     3.0442 C.ar    
  24 C24           -8.9903     1.8288     4.0773 C.ar    
  25 C25          -10.3221     1.4637     4.0204 C.ar    
  26 C26          -10.8002     0.7606     2.9302 C.ar    
  27 C27           -9.9471     0.4261     1.8954 C.ar    
  28 C28           -8.0958    -1.9550     1.0768 C.3     
  29 C29           -8.4692     2.5952     5.2656 C.3     
  30 F30           -8.5927     3.9680     5.0258 F       
  31 F31           -9.2085     2.2520     6.4026 F       
  32 F32           -7.1224     2.2772     5.4715 F       
  33 H33           -1.2830    -2.2082     0.1114 H       
  34 H34            0.9179    -1.2131     0.2605 H       
  35 H35            2.2467     0.6884    -0.0412 H       
  36 H36            1.5613     2.3263     0.0845 H       
  37 H37            1.2887     2.0244     2.5306 H       
  38 H38            1.9741     0.3865     2.4048 H       
  39 H39            4.0696     1.3893     1.4481 H       
  40 H40            2.7013     4.0083     2.2129 H       
  41 H41            4.3833     3.8402     1.6556 H       
  42 H42            3.0384     3.4593     0.5536 H       
  43 H43            3.8802     0.8901     3.8696 H       
  44 H44            4.8749     2.3399     3.5920 H       
  45 H45            3.1928     2.5080     4.1493 H       
  46 H46           -4.9083     0.3252     1.2773 H       
  47 H47           -4.9377     0.6030    -0.4864 H       
  48 H48           -6.3701    -1.2025    -0.8691 H       
  49 H49           -5.2496    -2.6624     1.5896 H       
  50 H50           -5.7963    -3.3620     0.0288 H       
  51 H51           -3.8871    -2.5100    -1.1589 H       
  52 H52           -3.1532    -2.9319     0.4186 H       
  53 H53           -6.8966     1.1685     0.7466 H       
  54 H54           -8.2420     0.3736    -0.1056 H       
  55 H55           -7.0953     1.7756     3.0887 H       
  56 H56          -10.9893     1.7275     4.8277 H       
  57 H57          -11.8408     0.4751     2.8859 H       
  58 H58          -10.3206    -0.1232     1.0438 H       
  59 H59           -7.6182    -2.9192     1.2509 H       
  60 H60           -8.8343    -1.7692     1.8567 H       
  61 H61           -8.5885    -1.9639     0.1045 H       
@<TRIPOS>BOND
   1    1    2 am
   2    1   10 1
   3    1    6 1
   4    2    3 1
   5    2    7 2
   6    3    4 2
   7    3    8 1
   8    4    5 1
   9    4   15 1
  10    5    6 2
  11    5   33 1
  12    6   34 1
  13    8    9 3
  14   10   11 1
  15   10   35 1
  16   10   36 1
  17   11   12 1
  18   11   37 1
  19   11   38 1
  20   12   13 1
  21   12   14 1
  22   12   39 1
  23   13   40 1
  24   13   41 1
  25   13   42 1
  26   14   43 1
  27   14   44 1
  28   14   45 1
  29   15   16 1
  30   15   19 1
  31   16   17 1
  32   16   46 1
  33   16   47 1
  34   17   18 1
  35   17   20 1
  36   17   48 1
  37   18   19 1
  38   18   49 1
  39   18   50 1
  40   19   51 1
  41   19   52 1
  42   20   21 1
  43   20   28 1
  44   21   22 1
  45   21   53 1
  46   21   54 1
  47   22   23 ar
  48   22   27 ar
  49   23   24 ar
  50   23   55 1
  51   24   25 ar
  52   24   29 1
  53   25   26 ar
  54   25   56 1
  55   26   27 ar
  56   26   57 1
  57   27   58 1
  58   28   59 1
  59   28   60 1
  60   28   61 1
  61   29   30 1
  62   29   31 1
  63   29   32 1

#	End of record

