#	Name: ASD00990028
#	Creating user name:	WinNT
#	Creation time:	15. 06. 2019 18:54

#	Modifying user name:	WinNT
#	Modification time:	15. 06. 2019 18:54

#	Program:	/corina/corina34_cracker 3.40 0067  02.08.2006

@<TRIPOS>MOLECULE
ASD00990028
  15   16    0    0    0
SMALL
NO_CHARGES


@<TRIPOS>ATOM
   1 C1            -0.0167     1.3800     0.0096 C.ar    
   2 C2             0.0021    -0.0041     0.0020 C.ar    
   3 C3            -1.1807    -0.7177     0.0095 C.ar    
   4 C4            -2.3940    -0.0471     0.0247 C.ar    
   5 C5            -2.4139     1.3470     0.0323 C.ar    
   6 C6            -1.2228     2.0586     0.0305 C.ar    
   7 O7            -3.6825    -0.4683     0.0347 O.3     
   8 C8            -4.4959     0.5993     0.0482 C.2     
   9 N9            -3.7570     1.7266     0.0472 N.am    
  10 O10           -5.7111     0.5562     0.0596 O.2     
  11 F11           -1.2403     3.4094     0.0380 F       
  12 I12            1.7845     2.4498    -0.0018 I       
  13 H13            0.9461    -0.5286    -0.0102 H       
  14 H14           -1.1603    -1.7975     0.0031 H       
  15 H15           -4.0965     2.6352     0.0553 H       
@<TRIPOS>BOND
   1    1    2 ar
   2    1   12 1
   3    1    6 ar
   4    2    3 ar
   5    2   13 1
   6    3    4 ar
   7    3   14 1
   8    4    5 ar
   9    4    7 1
  10    5    6 ar
  11    5    9 1
  12    6   11 1
  13    7    8 1
  14    8    9 am
  15    8   10 2
  16    9   15 1

#	End of record

