#	Name: ASD01913067
#	Creating user name:	WinNT
#	Creation time:	15. 06. 2019 20:00

#	Modifying user name:	WinNT
#	Modification time:	15. 06. 2019 20:00

#	Program:	/corina/corina34_cracker 3.40 0067  02.08.2006

@<TRIPOS>MOLECULE
ASD01913067
  41   44    0    0    0
SMALL
NO_CHARGES


@<TRIPOS>ATOM
   1 C1            -0.0925     1.5177     0.1197 C.ar    
   2 C2            -0.0984     0.1321     0.1151 C.ar    
   3 C3             1.0960    -0.5698     0.0857 C.ar    
   4 C4             2.2968     0.1090     0.0613 C.ar    
   5 C5             2.3073     1.5026     0.0659 C.ar    
   6 C6             1.1038     2.2044     0.0950 C.ar    
   7 F7            -1.2721    -0.5366     0.1397 F       
   8 C8             3.5964     2.2369     0.0403 C.2     
   9 N9             3.7555     3.5798     0.0414 N.2     
  10 C10            5.0494     3.7808     0.0147 C.2     
  11 O11            5.6342     2.5789    -0.0018 O.3     
  12 N12            4.7917     1.7067     0.0181 N.2     
  13 C13            5.7478     5.1162     0.0039 C.3     
  14 C14            6.6499     5.2308     1.2348 C.3     
  15 C15            7.3344     6.5996     1.2421 C.3     
  16 C16            8.2057     6.7370    -0.0104 C.3     
  17 N17            7.3741     6.4844    -1.1950 N.am    
  18 C18            6.6011     5.2367    -1.2626 C.3     
  19 C19            7.3213     7.3802    -2.2006 C.2     
  20 O20            7.8738     8.4561    -2.0854 O.2     
  21 N21            6.6556     7.0825    -3.3340 N.am    
  22 C22            5.9425     7.9490    -4.1077 C.2     
  23 N23            5.4460     7.2901    -5.1168 N.2     
  24 C24            5.8126     6.0013    -5.0334 C.2     
  25 C25            6.5711     5.8481    -3.9337 C.2     
  26 H26           -1.0258     2.0609     0.1381 H       
  27 H27            1.0869    -1.6497     0.0822 H       
  28 H28            3.2273    -0.4387     0.0392 H       
  29 H29            1.1075     3.2844     0.0983 H       
  30 H30            5.0061     5.9147     0.0208 H       
  31 H31            6.0485     5.1207     2.1373 H       
  32 H32            7.4064     4.4466     1.2049 H       
  33 H33            6.5781     7.3845     1.2470 H       
  34 H34            7.9585     6.6895     2.1311 H       
  35 H35            8.6168     7.7452    -0.0607 H       
  36 H36            9.0175     6.0106     0.0278 H       
  37 H37            7.2821     4.3880    -1.3266 H       
  38 H38            5.9535     5.2551    -2.1392 H       
  39 H39            5.8110     9.0038    -3.9168 H       
  40 H40            5.5471     5.2217    -5.7321 H       
  41 H41            7.0219     4.9307    -3.5850 H       
@<TRIPOS>BOND
   1    1    2 ar
   2    1    6 ar
   3    1   26 1
   4    2    3 ar
   5    2    7 1
   6    3    4 ar
   7    3   27 1
   8    4    5 ar
   9    4   28 1
  10    5    6 ar
  11    5    8 1
  12    6   29 1
  13    8    9 1
  14    8   12 2
  15    9   10 2
  16   10   11 1
  17   10   13 1
  18   11   12 1
  19   13   14 1
  20   13   18 1
  21   13   30 1
  22   14   15 1
  23   14   31 1
  24   14   32 1
  25   15   16 1
  26   15   33 1
  27   15   34 1
  28   16   17 1
  29   16   35 1
  30   16   36 1
  31   17   18 1
  32   17   19 am
  33   18   37 1
  34   18   38 1
  35   19   20 2
  36   19   21 am
  37   21   22 1
  38   21   25 1
  39   22   23 2
  40   22   39 1
  41   23   24 1
  42   24   25 2
  43   24   40 1
  44   25   41 1

#	End of record

