#	Name: ASD03091870
#	Creating user name:	WinNT
#	Creation time:	15. 06. 2019 20:31

#	Modifying user name:	WinNT
#	Modification time:	15. 06. 2019 20:31

#	Program:	/corina/corina34_cracker 3.40 0067  02.08.2006

@<TRIPOS>MOLECULE
ASD03091870
  57   61    0    0    0
SMALL
NO_CHARGES


@<TRIPOS>ATOM
   1 C1            -0.0168     1.3912     0.0097 C.ar    
   2 C2            -1.2516     2.0643     0.0309 C.ar    
   3 C3            -2.4514     1.3092     0.0450 C.ar    
   4 C4            -2.3942    -0.0985     0.0356 C.ar    
   5 C5            -1.1956    -0.7355     0.0148 C.ar    
   6 C6             0.0021    -0.0041     0.0020 C.ar    
   7 O7             1.1580     2.0616     0.0021 O.3     
   8 C8             2.2593     1.4603     0.6833 C.3     
   9 N9             2.4079     0.0581     0.2908 N.am    
  10 C10            1.3149    -0.6792    -0.0138 C.2     
  11 C11           -3.6697    -0.9009     0.0491 C.3     
  12 C12           -4.1813    -1.0549    -1.3600 C.ar    
  13 C13           -5.0451    -0.1190    -1.8972 C.ar    
  14 C14           -3.7871    -2.1340    -2.1358 C.ar    
  15 C15           -4.2831    -2.2349    -3.4268 C.ar    
  16 C16           -5.1478    -1.2634    -3.8938 C.ar    
  17 N17           -5.4972    -0.2473    -3.1292 N.ar    
  18 O18            1.4108    -1.8595    -0.2910 O.2     
  19 C19            3.7404    -0.5474     0.2275 C.3     
  20 C20            4.0089    -1.0464    -1.1956 C.3     
  21 O21            4.0172     0.0622    -2.0973 O.3     
  22 C22           -5.6930    -1.3630    -5.2952 C.3     
  23 C23            3.8114    -1.7304     1.1966 C.3     
  24 O24            5.0924    -2.3548     1.0910 O.3     
  25 C25            5.3790    -2.8827    -0.2056 C.3     
  26 C26            5.3711    -1.7460    -1.2311 C.3     
  27 C27           -1.3192     3.4666     0.0393 C.ar    
  28 C28           -3.6843     1.9815     0.0688 C.ar    
  29 C29           -2.5328     4.0841     0.0628 C.ar    
  30 C30           -3.7121     3.3430     0.0765 C.ar    
  31 C31           -7.2219    -1.3212    -5.2518 C.3     
  32 H32           -1.1634    -1.8150     0.0080 H       
  33 H33            3.1729     2.0010     0.4361 H       
  34 H34            2.0899     1.5160     1.7586 H       
  35 H35           -3.4751    -1.8854     0.4747 H       
  36 H36           -4.4169    -0.3855     0.6526 H       
  37 H37           -5.3535     0.7270    -1.3008 H       
  38 H38           -3.1094    -2.8782    -1.7442 H       
  39 H39           -3.9970    -3.0622    -4.0595 H       
  40 H40            4.4908     0.1940     0.5021 H       
  41 H41            3.2289    -1.7490    -1.4889 H       
  42 H42            4.1887    -0.1806    -3.0175 H       
  43 H43           -5.3234    -0.5271    -5.8891 H       
  44 H44           -5.3679    -2.3007    -5.7458 H       
  45 H45            3.6634    -1.3744     2.2162 H       
  46 H46            3.0336    -2.4520     0.9469 H       
  47 H47            6.3604    -3.3569    -0.1962 H       
  48 H48            4.6217    -3.6194    -0.4737 H       
  49 H49            5.5458    -2.1528    -2.2271 H       
  50 H50            6.1551    -1.0294    -0.9866 H       
  51 H51           -0.4125     4.0533     0.0276 H       
  52 H52           -4.6071     1.4206     0.0806 H       
  53 H53           -2.5816     5.1629     0.0696 H       
  54 H54           -4.6624     3.8556     0.0955 H       
  55 H55           -7.6162    -1.3932    -6.2654 H       
  56 H56           -7.5915    -2.1571    -4.6578 H       
  57 H57           -7.5470    -0.3835    -4.8011 H       
@<TRIPOS>BOND
   1    1    6 ar
   2    1    7 1
   3    1    2 ar
   4    2    3 ar
   5    2   27 ar
   6    3    4 ar
   7    3   28 ar
   8    4    5 ar
   9    4   11 1
  10    5    6 ar
  11    5   32 1
  12    6   10 1
  13    7    8 1
  14    8    9 1
  15    8   33 1
  16    8   34 1
  17    9   10 am
  18    9   19 1
  19   10   18 2
  20   11   12 1
  21   11   35 1
  22   11   36 1
  23   12   14 ar
  24   12   13 ar
  25   13   17 ar
  26   13   37 1
  27   14   15 ar
  28   14   38 1
  29   15   16 ar
  30   15   39 1
  31   16   22 1
  32   16   17 ar
  33   19   23 1
  34   19   20 1
  35   19   40 1
  36   20   21 1
  37   20   26 1
  38   20   41 1
  39   21   42 1
  40   22   31 1
  41   22   43 1
  42   22   44 1
  43   23   24 1
  44   23   45 1
  45   23   46 1
  46   24   25 1
  47   25   26 1
  48   25   47 1
  49   25   48 1
  50   26   49 1
  51   26   50 1
  52   27   29 ar
  53   27   51 1
  54   28   30 ar
  55   28   52 1
  56   29   30 ar
  57   29   53 1
  58   30   54 1
  59   31   55 1
  60   31   56 1
  61   31   57 1

#	End of record

