#	Name: ASD01880993
#	Creating user name:	WinNT
#	Creation time:	15. 06. 2019 19:41

#	Modifying user name:	WinNT
#	Modification time:	15. 06. 2019 19:41

#	Program:	/corina/corina34_cracker 3.40 0067  02.08.2006

@<TRIPOS>MOLECULE
ASD01880993
  35   37    0    0    0
SMALL
NO_CHARGES


@<TRIPOS>ATOM
   1 N1            -0.0158     1.3137     0.0093 N.ar    
   2 C2             0.0021    -0.0041     0.0020 C.ar    
   3 N3             1.1316    -0.6829    -0.0120 N.ar    
   4 C4             2.2996    -0.0575    -0.0198 C.ar    
   5 C5             2.3220     1.3293    -0.0130 C.ar    
   6 C6             1.1125     2.0081     0.0022 C.ar    
   7 C7             3.6285     2.0803    -0.0209 C.3     
   8 O8             4.0294     2.3244    -1.3706 O.3     
   9 C9             5.1943     2.9957    -1.5555 C.ar    
  10 C10            5.6431     3.2668    -2.8449 C.ar    
  11 C11            6.8209     3.9461    -3.0317 C.ar    
  12 C12            7.5762     4.3695    -1.9326 C.ar    
  13 C13            7.1210     4.0947    -0.6386 C.ar    
  14 C14            5.9342     3.4164    -0.4578 C.ar    
  15 C15            7.5726     4.3914    -4.2613 C.3     
  16 N16            8.7759     5.0789    -3.7790 N.am    
  17 C17            8.7735     5.0637    -2.4351 C.2     
  18 O18            9.6372     5.5540    -1.7337 O.2     
  19 Cl19           3.7816    -0.9614    -0.0376 Cl      
  20 Cl20           8.0455     4.6120     0.7367 Cl      
  21 Cl21           1.0776     3.7437     0.0113 Cl      
  22 C22            9.4497     7.1433    -4.9040 C.3     
  23 C23            9.8095     5.6830    -4.6234 C.3     
  24 H24           -0.9343    -0.5422     0.0081 H       
  25 H25            3.5047     3.0303     0.4988 H       
  26 H26            4.3916     1.4871     0.4831 H       
  27 H27            5.0652     2.9426    -3.6977 H       
  28 H28            5.5825     3.2045     0.5411 H       
  29 H29            7.8512     3.5268    -4.8638 H       
  30 H30            6.9597     5.0758    -4.8479 H       
  31 H31           10.2187     7.5927    -5.5323 H       
  32 H32            8.4891     7.1887    -5.4171 H       
  33 H33            9.3849     7.6889    -3.9626 H       
  34 H34           10.7701     5.6376    -4.1103 H       
  35 H35            9.8743     5.1374    -5.5648 H       
@<TRIPOS>BOND
   1    1    2 ar
   2    1    6 ar
   3    2    3 ar
   4    2   24 1
   5    3    4 ar
   6    4    5 ar
   7    4   19 1
   8    5    6 ar
   9    5    7 1
  10    6   21 1
  11    7    8 1
  12    7   25 1
  13    7   26 1
  14    8    9 1
  15    9   10 ar
  16    9   14 ar
  17   10   11 ar
  18   10   27 1
  19   11   12 ar
  20   11   15 1
  21   12   13 ar
  22   12   17 1
  23   13   14 ar
  24   13   20 1
  25   14   28 1
  26   15   16 1
  27   15   29 1
  28   15   30 1
  29   16   17 am
  30   16   23 1
  31   17   18 2
  32   22   23 1
  33   22   31 1
  34   22   32 1
  35   22   33 1
  36   23   34 1
  37   23   35 1

#	End of record

