#	Name: ASD01810191
#	Creating user name:	WinNT
#	Creation time:	15. 06. 2019 19:24

#	Modifying user name:	WinNT
#	Modification time:	15. 06. 2019 19:24

#	Program:	/corina/corina34_cracker 3.40 0067  02.08.2006

@<TRIPOS>MOLECULE
ASD01810191
  44   47    0    0    0
SMALL
NO_CHARGES


@<TRIPOS>ATOM
   1 C1             7.3405     1.2107    -0.2139 C.ar    
   2 C2             7.2569    -0.1732    -0.2150 C.ar    
   3 C3             6.0319    -0.8061    -0.1562 C.ar    
   4 C4             4.8609    -0.0529    -0.0944 C.ar    
   5 C5             4.9471     1.3497    -0.0928 C.ar    
   6 C6             6.1940     1.9772    -0.1532 C.ar    
   7 N7             3.6309    -0.6740    -0.0363 N.pl3   
   8 C8             2.4781     0.0044     0.0233 C.2     
   9 C9             2.4362     1.3840     0.0307 C.2     
  10 C10            3.7015     2.1343    -0.0271 C.2     
  11 O11            3.7180     3.3528    -0.0227 O.2     
  12 C12            1.1501     2.0921     0.0960 C.2     
  13 O13            1.1222     3.4399     0.1026 O.3     
  14 O14            0.1113     1.4624     0.1442 O.2     
  15 C15            3.5837    -2.1382    -0.0406 C.3     
  16 C16            3.4403    -2.6321    -1.4571 C.ar    
  17 C17            4.5620    -2.7759    -2.2536 C.ar    
  18 C18            4.4364    -3.2278    -3.5516 C.ar    
  19 C19            3.1768    -3.5393    -4.0594 C.ar    
  20 C20            2.0503    -3.3925    -3.2526 C.ar    
  21 C21            2.1880    -2.9452    -1.9542 C.ar    
  22 F22            5.9679    -2.1555    -0.1591 F       
  23 C23            3.0355    -4.0251    -5.4544 C.ar    
  24 C24            1.7759    -4.3366    -5.9621 C.ar    
  25 C25            1.6503    -4.7881    -7.2603 C.ar    
  26 C26            2.7720    -4.9320    -8.0568 C.ar    
  27 C27            4.0249    -4.6247    -7.5577 C.ar    
  28 C28            4.1614    -4.1661    -6.2631 C.ar    
  29 F29            6.2772     3.3257    -0.1513 F       
  30 H30            8.3069     1.6910    -0.2562 H       
  31 H31            8.1606    -0.7627    -0.2628 H       
  32 H32            1.5500    -0.5463     0.0668 H       
  33 H33            0.2528     3.8608     0.1465 H       
  34 H34            4.5039    -2.5327     0.3903 H       
  35 H35            2.7320    -2.4760     0.5499 H       
  36 H36            5.5378    -2.5339    -1.8591 H       
  37 H37            5.3129    -3.3394    -4.1728 H       
  38 H38            1.0716    -3.6325    -3.6412 H       
  39 H39            1.3155    -2.8310    -1.3280 H       
  40 H40            0.8995    -4.2253    -5.3409 H       
  41 H41            0.6745    -5.0298    -7.6549 H       
  42 H42            2.6693    -5.2860    -9.0719 H       
  43 H43            4.8975    -4.7392    -8.1838 H       
  44 H44            5.1401    -3.9261    -5.8745 H       
@<TRIPOS>BOND
   1    1    2 ar
   2    1    6 ar
   3    1   30 1
   4    2    3 ar
   5    2   31 1
   6    3    4 ar
   7    3   22 1
   8    4    5 ar
   9    4    7 1
  10    5    6 ar
  11    5   10 1
  12    6   29 1
  13    7    8 1
  14    7   15 1
  15    8    9 2
  16    8   32 1
  17    9   10 1
  18    9   12 1
  19   10   11 2
  20   12   13 1
  21   12   14 2
  22   13   33 1
  23   15   16 1
  24   15   34 1
  25   15   35 1
  26   16   17 ar
  27   16   21 ar
  28   17   18 ar
  29   17   36 1
  30   18   19 ar
  31   18   37 1
  32   19   20 ar
  33   19   23 1
  34   20   21 ar
  35   20   38 1
  36   21   39 1
  37   23   24 ar
  38   23   28 ar
  39   24   25 ar
  40   24   40 1
  41   25   26 ar
  42   25   41 1
  43   26   27 ar
  44   26   42 1
  45   27   28 ar
  46   27   43 1
  47   28   44 1

#	End of record

