#	Name: ASD02039022
#	Creating user name:	WinNT
#	Creation time:	15. 06. 2019 20:17

#	Modifying user name:	WinNT
#	Modification time:	15. 06. 2019 20:17

#	Program:	/corina/corina34_cracker 3.40 0067  02.08.2006

@<TRIPOS>MOLECULE
ASD02039022
  42   45    0    0    0
SMALL
NO_CHARGES


@<TRIPOS>ATOM
   1 N1            -0.0154     1.2823     0.0091 N.2     
   2 N2             0.0021    -0.0041     0.0020 N.2     
   3 C3             1.2155     1.7327    -0.0002 C.2     
   4 O4             2.0320     0.6629    -0.0138 O.3     
   5 C5             1.2335    -0.4225    -0.0120 C.2     
   6 N6             1.6029     3.0599     0.0032 N.pl3   
   7 C7             1.2700     5.4636     0.0197 C.ar    
   8 C8             1.6853    -1.8601    -0.0233 C.3     
   9 O9             1.8159    -2.3078    -1.3740 O.3     
  10 C10            2.2184    -3.5928    -1.5623 C.ar    
  11 C11            2.3639    -4.0863    -2.8434 C.ar    
  12 C12            2.4872    -4.4029    -0.4619 C.ar    
  13 C13            2.8960    -5.7072    -0.6335 C.ar    
  14 C14            3.0435    -6.2260    -1.9153 C.ar    
  15 C15            2.7782    -5.4089    -3.0305 C.ar    
  16 C16            1.5697     6.0871    -1.1771 C.ar    
  17 C17            1.5885     6.0765     1.2171 C.ar    
  18 C18            2.2067     7.3129     1.2177 C.ar    
  19 C19            2.5068     7.9362     0.0209 C.ar    
  20 C20            2.1879     7.3235    -1.1765 C.ar    
  21 N21            3.4515    -7.5304    -2.1082 N.am    
  22 C22            3.5945    -8.0344    -3.3463 C.2     
  23 C23            3.3363    -7.2583    -4.4964 C.2     
  24 O24            3.9567    -9.1907    -3.4789 O.2     
  25 C25            2.9372    -5.9682    -4.3743 C.2     
  26 C26            0.5904     4.1185     0.0191 C.3     
  27 H27            2.5452     3.2900    -0.0049 H       
  28 H28            2.6479    -1.9425     0.4815 H       
  29 H29            0.9499    -2.4762     0.4942 H       
  30 H30            2.1588    -3.4553    -3.6955 H       
  31 H31            2.3745    -4.0046     0.5357 H       
  32 H32            3.1021    -6.3264     0.2270 H       
  33 H33            1.3212     5.6081    -2.1126 H       
  34 H34            1.3540     5.5895     2.1521 H       
  35 H35            2.4549     7.7921     2.1532 H       
  36 H36            2.9892     8.9025     0.0214 H       
  37 H37            2.4227     7.8103    -2.1115 H       
  38 H38            3.6382    -8.0915    -1.3393 H       
  39 H39            3.4612    -7.6922    -5.4775 H       
  40 H40            2.7371    -5.3674    -5.2492 H       
  41 H41           -0.0409     4.0308    -0.8651 H       
  42 H42           -0.0232     4.0210     0.9147 H       
@<TRIPOS>BOND
   1    1    2 1
   2    1    3 2
   3    2    5 2
   4    3    4 1
   5    3    6 1
   6    4    5 1
   7    5    8 1
   8    6   26 1
   9    6   27 1
  10    7   16 ar
  11    7   17 ar
  12    7   26 1
  13    8    9 1
  14    8   28 1
  15    8   29 1
  16    9   10 1
  17   10   11 ar
  18   10   12 ar
  19   11   15 ar
  20   11   30 1
  21   12   13 ar
  22   12   31 1
  23   13   14 ar
  24   13   32 1
  25   14   15 ar
  26   14   21 1
  27   15   25 1
  28   16   20 ar
  29   16   33 1
  30   17   18 ar
  31   17   34 1
  32   18   19 ar
  33   18   35 1
  34   19   20 ar
  35   19   36 1
  36   20   37 1
  37   21   22 am
  38   21   38 1
  39   22   23 1
  40   22   24 2
  41   23   25 2
  42   23   39 1
  43   25   40 1
  44   26   41 1
  45   26   42 1

#	End of record

