#	Name: ASD03080005
#	Creating user name:	WinNT
#	Creation time:	15. 06. 2019 20:26

#	Modifying user name:	WinNT
#	Modification time:	15. 06. 2019 20:26

#	Program:	/corina/corina34_cracker 3.40 0067  02.08.2006

@<TRIPOS>MOLECULE
ASD03080005
  27   29    0    0    0
SMALL
NO_CHARGES


@<TRIPOS>ATOM
   1 C1             0.0021    -0.0041     0.0020 C.1     
   2 C2            -0.0173     1.4278     0.0099 C.ar    
   3 C3             1.1796     2.1434     0.0023 C.ar    
   4 C4             1.1519     3.5334     0.0101 C.ar    
   5 C5            -0.0704     4.2044     0.0254 C.ar    
   6 C6            -1.2537     3.4919     0.0329 C.ar    
   7 C7            -1.2352     2.1116     0.0194 C.ar    
   8 N8             0.0175    -1.1399    -0.0042 N.1     
   9 O9             4.4551     4.6910    -0.0143 O.3     
  10 N10            3.6306     3.8017    -0.0117 N.2     
  11 C11            2.4218     4.3023     0.0026 C.2     
  12 N12            2.5424     5.6462     0.0092 N.2     
  13 C13            3.8407     5.8841    -0.0016 C.2     
  14 C14            3.7272     8.3765     0.0140 C.ar    
  15 C15            4.4928     7.2102    -0.0005 C.ar    
  16 C16            5.8894     7.3163    -0.0136 C.ar    
  17 C17            6.4512     8.5793    -0.0115 C.ar    
  18 C18            5.6218     9.6906     0.0033 C.ar    
  19 N19            4.3070     9.5589     0.0154 N.ar    
  20 F20            6.1664    10.9270     0.0059 F       
  21 H21            2.1243     1.6200    -0.0092 H       
  22 H22           -0.0919     5.2841     0.0318 H       
  23 H23           -2.1974     4.0170     0.0451 H       
  24 H24           -2.1636     1.5598     0.0207 H       
  25 H25            2.6493     8.3090     0.0196 H       
  26 H26            6.5117     6.4337    -0.0246 H       
  27 H27            7.5245     8.6993    -0.0209 H       
@<TRIPOS>BOND
   1    1    2 1
   2    1    8 3
   3    2    3 ar
   4    2    7 ar
   5    3    4 ar
   6    3   21 1
   7    4    5 ar
   8    4   11 1
   9    5    6 ar
  10    5   22 1
  11    6    7 ar
  12    6   23 1
  13    7   24 1
  14    9   10 1
  15    9   13 1
  16   10   11 2
  17   11   12 1
  18   12   13 2
  19   13   15 1
  20   14   15 ar
  21   14   19 ar
  22   14   25 1
  23   15   16 ar
  24   16   17 ar
  25   16   26 1
  26   17   18 ar
  27   17   27 1
  28   18   19 ar
  29   18   20 1

#	End of record

