#	Name: ASD02030626
#	Creating user name:	WinNT
#	Creation time:	15. 06. 2019 20:15

#	Modifying user name:	WinNT
#	Modification time:	15. 06. 2019 20:15

#	Program:	/corina/corina34_cracker 3.40 0067  02.08.2006

@<TRIPOS>MOLECULE
ASD02030626
  64   67    0    0    0
SMALL
NO_CHARGES


@<TRIPOS>ATOM
   1 C1             0.1495     1.1544    -0.0899 C.ar    
   2 C2             0.0136    -0.2175    -0.0930 C.ar    
   3 C3             1.1441    -1.0194    -0.1582 C.ar    
   4 C4             2.3974    -0.4349    -0.2138 C.ar    
   5 C5             2.5325     0.9474    -0.2041 C.ar    
   6 C6             1.4074     1.7399    -0.1513 C.ar    
   7 C7             1.4807     3.2463    -0.1713 C.3     
   8 C8             3.9284     1.5118    -0.2380 C.3     
   9 C9             3.9164     2.9647    -0.7105 C.3     
  10 N10            2.8674     3.6763     0.0369 N.am    
  11 C11            0.9853     3.7621    -1.5238 C.3     
  12 O12            1.7309     3.1409    -2.5727 O.3     
  13 C13            1.4134     3.4921    -3.8475 C.ar    
  14 C14            3.1695     4.6835     0.8799 C.2     
  15 O15            4.3316     4.9716     1.0911 O.2     
  16 C16            2.0886     5.4374     1.5474 C.ar    
  17 C17            0.7667     4.2065    -6.4426 C.ar    
  18 C18            0.0865     4.7762    -5.3765 C.ar    
  19 C19            0.4090     4.4195    -4.0816 C.ar    
  20 C20            2.0978     2.9271    -4.9133 C.ar    
  21 C21            1.7753     3.2837    -6.2082 C.ar    
  22 C22            2.2640     5.9077     2.8504 C.ar    
  23 C23            0.8902     5.6870     0.8753 C.ar    
  24 C24           -0.1158     6.3913     1.5016 C.ar    
  25 C25            0.0595     6.8523     2.7970 C.ar    
  26 C26            1.2504     6.6121     3.4690 C.ar    
  27 O27            0.4492     4.5577    -7.7174 O.3     
  28 C28            1.1903     3.9315    -8.7665 C.3     
  29 C29            0.6956     4.4482   -10.1190 C.3     
  30 O30            1.0212    -2.3729    -0.1670 O.3     
  31 C31           -0.2911    -2.9064     0.0205 C.3     
  32 C32           -0.9357    -3.1659    -1.3426 C.3     
  33 C33           -0.2012    -4.2195     0.8005 C.3     
  34 F34           -0.9298     7.5419     3.4058 F       
  35 F35            1.4177     7.0682     4.7296 F       
  36 H36           -0.7301     1.7793    -0.0439 H       
  37 H37           -0.9678    -0.6657    -0.0445 H       
  38 H38            3.2775    -1.0587    -0.2647 H       
  39 H39            0.8526     3.6505     0.6225 H       
  40 H40            4.3588     1.4638     0.7623 H       
  41 H41            4.5386     0.9184    -0.9189 H       
  42 H42            4.8853     3.4241    -0.5147 H       
  43 H43            3.6982     3.0034    -1.7778 H       
  44 H44           -0.0719     3.5230    -1.6388 H       
  45 H45            1.1208     4.8426    -1.5724 H       
  46 H46           -0.6989     5.4947    -5.5590 H       
  47 H47           -0.1211     4.8624    -3.2515 H       
  48 H48            2.8832     2.2085    -4.7309 H       
  49 H49            2.3049     2.8402    -7.0384 H       
  50 H50            3.1902     5.7206     3.3733 H       
  51 H51            0.7519     5.3290    -0.1342 H       
  52 H52           -1.0424     6.5847     0.9817 H       
  53 H53            2.2489     4.1655    -8.6532 H       
  54 H54            1.0495     2.8518    -8.7164 H       
  55 H55           -0.3629     4.2142   -10.2322 H       
  56 H56            0.8364     5.5279   -10.1690 H       
  57 H57            1.2610     3.9706   -10.9192 H       
  58 H58           -0.8970    -2.1928     0.5790 H       
  59 H59           -1.9367    -3.5729    -1.1995 H       
  60 H60           -0.9998    -2.2304    -1.8983 H       
  61 H61           -0.3298    -3.8795    -1.9010 H       
  62 H62            0.2581    -4.0346     1.7716 H       
  63 H63           -1.2022    -4.6265     0.9435 H       
  64 H64            0.4047    -4.9331     0.2420 H       
@<TRIPOS>BOND
   1    1    2 ar
   2    1    6 ar
   3    1   36 1
   4    2    3 ar
   5    2   37 1
   6    3    4 ar
   7    3   30 1
   8    4    5 ar
   9    4   38 1
  10    5    6 ar
  11    5    8 1
  12    6    7 1
  13    7   10 1
  14    7   11 1
  15    7   39 1
  16    8    9 1
  17    8   40 1
  18    8   41 1
  19    9   10 1
  20    9   42 1
  21    9   43 1
  22   10   14 am
  23   11   12 1
  24   11   44 1
  25   11   45 1
  26   12   13 1
  27   13   20 ar
  28   13   19 ar
  29   14   15 2
  30   14   16 1
  31   16   23 ar
  32   16   22 ar
  33   17   18 ar
  34   17   21 ar
  35   17   27 1
  36   18   19 ar
  37   18   46 1
  38   19   47 1
  39   20   21 ar
  40   20   48 1
  41   21   49 1
  42   22   26 ar
  43   22   50 1
  44   23   24 ar
  45   23   51 1
  46   24   25 ar
  47   24   52 1
  48   25   26 ar
  49   25   34 1
  50   26   35 1
  51   27   28 1
  52   28   29 1
  53   28   53 1
  54   28   54 1
  55   29   55 1
  56   29   56 1
  57   29   57 1
  58   30   31 1
  59   31   32 1
  60   31   33 1
  61   31   58 1
  62   32   59 1
  63   32   60 1
  64   32   61 1
  65   33   62 1
  66   33   63 1
  67   33   64 1

#	End of record

