#	Name: ASD05490019
#	Creating user name:	WinNT
#	Creation time:	15. 06. 2019 21:00

#	Modifying user name:	WinNT
#	Modification time:	15. 06. 2019 21:00

#	Program:	/corina/corina34_cracker 3.40 0067  02.08.2006

@<TRIPOS>MOLECULE
ASD05490019
  44   46    0    0    0
SMALL
NO_CHARGES


@<TRIPOS>ATOM
   1 N1            -0.0178     1.4608     0.0101 N.pl3   
   2 O2             4.5582     2.8949    -0.0261 O.3     
   3 N3             2.7941     4.3826    -0.0015 N.ar    
   4 C4             1.4952     4.6638     0.0118 C.ar    
   5 C5             3.2233     3.1292    -0.0123 C.ar    
   6 N6             2.3949     2.0994    -0.0093 N.ar    
   7 C7             1.0795     2.2895     0.0040 C.ar    
   8 C8             0.5781     3.6006     0.0150 C.ar    
   9 N9             1.0558     5.9772     0.0226 N.pl3   
  10 C10           -1.1306     2.2546     0.0190 C.2     
  11 N11           -0.7773     3.5129     0.0270 N.2     
  12 C12            5.4173     4.0368    -0.0280 C.3     
  13 C13            6.8766     3.5771    -0.0442 C.3     
  14 C14            7.7964     4.7998    -0.0462 C.3     
  15 C15            9.2556     4.3401    -0.0624 C.3     
  16 C16            0.0021    -0.0041     0.0020 C.3     
  17 C17            0.0225    -0.5140     1.4200 C.ar    
  18 C18           -1.1595    -0.7668     2.0892 C.ar    
  19 N19           -1.1502    -1.2127     3.3305 N.ar    
  20 C20           -0.0231    -1.4346     3.9793 C.ar    
  21 C21            1.1990    -1.2040     3.3730 C.ar    
  22 C22            1.2281    -0.7406     2.0672 C.ar    
  23 Br23          -0.0784    -2.0743     5.7579 Br      
  24 O24           -2.4073     1.8048     0.0270 O.3     
  25 C25           -3.4422     2.7900     0.0462 C.3     
  26 H26            1.6985     6.7037     0.0206 H       
  27 H27            0.1053     6.1706     0.0323 H       
  28 H28            5.2168     4.6408    -0.9129 H       
  29 H29            5.2335     4.6312     0.8670 H       
  30 H30            7.0771     2.9731     0.8407 H       
  31 H31            7.0603     2.9827    -0.9391 H       
  32 H32            7.5959     5.4038    -0.9311 H       
  33 H33            7.6126     5.3942     0.8487 H       
  34 H34            9.4561     3.7361     0.8225 H       
  35 H35            9.4394     3.7457    -0.9574 H       
  36 H36            9.9109     5.2111    -0.0639 H       
  37 H37           -0.8878    -0.3767    -0.5053 H       
  38 H38            0.8920    -0.3525    -0.5222 H       
  39 H39           -2.1021    -0.5970     1.5902 H       
  40 H40            2.1186    -1.3870     3.9090 H       
  41 H41            2.1672    -0.5518     1.5685 H       
  42 H42           -3.3595     3.4211    -0.8387 H       
  43 H43           -4.4139     2.2962     0.0508 H       
  44 H44           -3.3425     3.4042     0.9411 H       
@<TRIPOS>BOND
   1    1   16 1
   2    1    7 1
   3    1   10 1
   4    2   12 1
   5    2    5 1
   6    3    4 ar
   7    3    5 ar
   8    4    9 1
   9    4    8 ar
  10    5    6 ar
  11    6    7 ar
  12    7    8 ar
  13    8   11 1
  14    9   26 1
  15    9   27 1
  16   10   11 2
  17   10   24 1
  18   12   13 1
  19   12   28 1
  20   12   29 1
  21   13   14 1
  22   13   30 1
  23   13   31 1
  24   14   15 1
  25   14   32 1
  26   14   33 1
  27   15   34 1
  28   15   35 1
  29   15   36 1
  30   16   17 1
  31   16   37 1
  32   16   38 1
  33   17   18 ar
  34   17   22 ar
  35   18   19 ar
  36   18   39 1
  37   19   20 ar
  38   20   21 ar
  39   20   23 1
  40   21   22 ar
  41   21   40 1
  42   22   41 1
  43   24   25 1
  44   25   42 1
  45   25   43 1
  46   25   44 1

#	End of record

