#	Name: ASD02198807
#	Creating user name:	WinNT
#	Creation time:	15. 06. 2019 20:20

#	Modifying user name:	WinNT
#	Modification time:	15. 06. 2019 20:20

#	Program:	/corina/corina34_cracker 3.40 0067  02.08.2006

@<TRIPOS>MOLECULE
ASD02198807
  48   52    0    0    0
SMALL
NO_CHARGES


@<TRIPOS>ATOM
   1 F1             2.2530    -1.7120     2.4713 F       
   2 C2            -0.0433     1.5016    -0.1151 C.2     
   3 C3            -0.0730     0.1618     0.0974 C.2     
   4 N4             1.0714    -0.5397     0.2597 N.pl3   
   5 N5             2.2359    -0.0050     0.2257 N.2     
   6 C6             2.4074     1.2845     0.0275 C.2     
   7 C7             1.2215     2.1356    -0.1606 C.2     
   8 C8             0.9799    -1.9188     0.4763 C.ar    
   9 C9             1.5807    -2.4894     1.5944 C.ar    
  10 C10            1.4894    -3.8520     1.8067 C.ar    
  11 C11            0.7986    -4.6501     0.9047 C.ar    
  12 C12            0.1995    -4.0798    -0.2115 C.ar    
  13 C13            0.2844    -2.7188    -0.4218 C.ar    
  14 C14            3.7643     1.8668    -0.0051 C.2     
  15 N15            4.3062     2.6070    -1.0182 N.pl3   
  16 N16            5.6079     2.9589    -0.6403 N.2     
  17 C17            5.8518     2.4594     0.5451 C.2     
  18 C18            4.7201     1.7711     0.9825 C.2     
  19 C19            3.6733     2.9512    -2.2193 C.ar    
  20 C20            3.8066     4.2343    -2.7332 C.ar    
  21 C21            3.1813     4.5707    -3.9178 C.ar    
  22 C22            2.4230     3.6312    -4.5921 C.ar    
  23 C23            2.2879     2.3527    -4.0828 C.ar    
  24 C24            2.9158     2.0083    -2.9018 C.ar    
  25 O25            1.3245     3.3387    -0.3484 O.2     
  26 N26            0.7061    -6.0320     1.1201 N.pl3   
  27 N27            1.2586    -6.7374     2.1969 N.2     
  28 C28            0.9615    -8.0038     2.0521 C.2     
  29 C29            0.2110    -8.1464     0.8799 C.2     
  30 C30            0.0627    -6.9195     0.3283 C.2     
  31 C31            7.1403     2.6077     1.3123 C.3     
  32 H32           -0.9547     2.0651    -0.2497 H       
  33 H33           -1.0228    -0.3506     0.1377 H       
  34 H34            1.9556    -4.2959     2.6739 H       
  35 H35           -0.3369    -4.7017    -0.9129 H       
  36 H36           -0.1820    -2.2765    -1.2898 H       
  37 H37            4.6145     1.2513     1.9233 H       
  38 H38            4.3984     4.9686    -2.2069 H       
  39 H39            3.2843     5.5686    -4.3178 H       
  40 H40            1.9350     3.8966    -5.5183 H       
  41 H41            1.6945     1.6213    -4.6113 H       
  42 H42            2.8099     1.0097    -2.5045 H       
  43 H43            1.2468    -8.8015     2.7220 H       
  44 H44           -0.1836    -9.0716     0.4867 H       
  45 H45           -0.4683    -6.6912    -0.5840 H       
  46 H46            7.0925     3.5023     1.9333 H       
  47 H47            7.2888     1.7332     1.9458 H       
  48 H48            7.9717     2.6950     0.6128 H       
@<TRIPOS>BOND
   1    1    9 1
   2    2    3 2
   3    2    7 1
   4    2   32 1
   5    3    4 1
   6    3   33 1
   7    4    5 1
   8    4    8 1
   9    5    6 2
  10    6    7 1
  11    6   14 1
  12    7   25 2
  13    8    9 ar
  14    8   13 ar
  15    9   10 ar
  16   10   11 ar
  17   10   34 1
  18   11   12 ar
  19   11   26 1
  20   12   13 ar
  21   12   35 1
  22   13   36 1
  23   14   15 1
  24   14   18 2
  25   15   16 1
  26   15   19 1
  27   16   17 2
  28   17   18 1
  29   17   31 1
  30   18   37 1
  31   19   20 ar
  32   19   24 ar
  33   20   21 ar
  34   20   38 1
  35   21   22 ar
  36   21   39 1
  37   22   23 ar
  38   22   40 1
  39   23   24 ar
  40   23   41 1
  41   24   42 1
  42   26   27 1
  43   26   30 1
  44   27   28 2
  45   28   29 1
  46   28   43 1
  47   29   30 2
  48   29   44 1
  49   30   45 1
  50   31   46 1
  51   31   47 1
  52   31   48 1

#	End of record

