#	Name: ASD01882742
#	Creating user name:	WinNT
#	Creation time:	15. 06. 2019 19:45

#	Modifying user name:	WinNT
#	Modification time:	15. 06. 2019 19:45

#	Program:	/corina/corina34_cracker 3.40 0067  02.08.2006

@<TRIPOS>MOLECULE
ASD01882742
  43   45    0    0    0
SMALL
NO_CHARGES


@<TRIPOS>ATOM
   1 C1            -0.0180     1.4785     0.0102 C.ar    
   2 C2             0.0021    -0.0041     0.0020 C.ar    
   3 N3             1.1656    -0.6423    -0.0071 N.ar    
   4 C4            -1.2009    -0.7072     0.0097 C.ar    
   5 C5            -1.1754    -2.0915     0.0020 C.ar    
   6 C6             1.2295    -1.9625    -0.0146 C.ar    
   7 N7             2.2904    -2.8593    -0.0249 N.am    
   8 C8             0.0584    -2.7281    -0.0131 C.ar    
   9 N9             0.4477    -4.0640    -0.0241 N.am    
  10 C10            1.7935    -4.1101    -0.0295 C.2     
  11 C11            3.7115    -2.5033    -0.0300 C.3     
  12 C12           -0.4513    -5.2207    -0.0213 C.3     
  13 C13           -0.7786    -5.6158    -1.4627 C.3     
  14 C14            0.5135    -5.9759    -2.1987 C.3     
  15 C15           -1.7175    -6.8238    -1.4598 C.3     
  16 C16           -1.4590    -4.4427    -2.1711 C.3     
  17 O17            2.4595    -5.1284    -0.0387 O.2     
  18 C18            1.1533     3.5780     0.0107 C.ar    
  19 C19           -0.0562     4.2485     0.0263 C.ar    
  20 C20           -1.2453     3.5418     0.0393 C.ar    
  21 C21           -1.2323     2.1617     0.0313 C.ar    
  22 C22            1.1797     2.1959     0.0026 C.ar    
  23 F23            2.3613     1.5411    -0.0122 F       
  24 H24           -2.1425    -0.1784     0.0219 H       
  25 H25           -2.0924    -2.6620     0.0081 H       
  26 H26            4.0690    -2.4209     0.9964 H       
  27 H27            4.2776    -3.2754    -0.5510 H       
  28 H28            3.8451    -1.5488    -0.5391 H       
  29 H29            0.0334    -6.0564     0.4834 H       
  30 H30           -1.3719    -4.9642     0.5031 H       
  31 H31            0.9983    -6.8116    -1.6940 H       
  32 H32            0.2804    -6.2574    -3.2256 H       
  33 H33            1.1824    -5.1153    -2.2008 H       
  34 H34           -2.6380    -6.5672    -0.9354 H       
  35 H35           -1.9507    -7.1053    -2.4867 H       
  36 H36           -1.2328    -7.6595    -0.9551 H       
  37 H37           -0.7901    -3.5821    -2.1731 H       
  38 H38           -1.6922    -4.7241    -3.1980 H       
  39 H39           -2.3796    -4.1861    -1.6467 H       
  40 H40            2.0785     4.1351     0.0007 H       
  41 H41           -0.0723     5.3283     0.0330 H       
  42 H42           -2.1864     4.0715     0.0518 H       
  43 H43           -2.1620     1.6120     0.0410 H       
@<TRIPOS>BOND
   1    1    2 1
   2    1   22 ar
   3    1   21 ar
   4    2    4 ar
   5    2    3 ar
   6    3    6 ar
   7    4    5 ar
   8    4   24 1
   9    5    8 ar
  10    5   25 1
  11    6    8 ar
  12    6    7 1
  13    7   10 am
  14    7   11 1
  15    8    9 1
  16    9   10 am
  17    9   12 1
  18   10   17 2
  19   11   26 1
  20   11   27 1
  21   11   28 1
  22   12   13 1
  23   12   29 1
  24   12   30 1
  25   13   14 1
  26   13   15 1
  27   13   16 1
  28   14   31 1
  29   14   32 1
  30   14   33 1
  31   15   34 1
  32   15   35 1
  33   15   36 1
  34   16   37 1
  35   16   38 1
  36   16   39 1
  37   18   19 ar
  38   18   22 ar
  39   18   40 1
  40   19   20 ar
  41   19   41 1
  42   20   21 ar
  43   20   42 1
  44   21   43 1
  45   22   23 1

#	End of record

