#	Name: ASD03331688
#	Creating user name:	WinNT
#	Creation time:	15. 06. 2019 20:39

#	Modifying user name:	WinNT
#	Modification time:	15. 06. 2019 20:39

#	Program:	/corina/corina34_cracker 3.40 0067  02.08.2006

@<TRIPOS>MOLECULE
ASD03331688
  43   46    0    0    0
SMALL
NO_CHARGES


@<TRIPOS>ATOM
   1 C1            -0.0166     1.3732     0.0096 C.ar    
   2 C2             0.0021    -0.0041     0.0020 C.ar    
   3 C3             1.2100    -0.6897    -0.0132 C.ar    
   4 C4             2.4058    -0.0059    -0.0209 C.ar    
   5 C5             1.1873     2.0801     0.0019 C.ar    
   6 C6             1.5312     3.5041     0.0063 C.2     
   7 C7             2.4102     1.3847    -0.0135 C.ar    
   8 N8             3.4137     2.3285    -0.0176 N.pl3   
   9 C9             2.8710     3.5845    -0.0061 C.2     
  10 S10            3.7943     5.0852    -0.0074 S.o2    
  11 O11            2.9454     6.0790     0.5502 O.2     
  12 O12            5.0741     4.7694     0.5233 O.2     
  13 N13            4.0361     5.5107    -1.5894 N.am    
  14 C14            2.8938     5.8659    -2.4352 C.3     
  15 C15            4.1454     6.4871    -5.9388 C.ar    
  16 C16            3.6963     5.8160    -4.8143 C.ar    
  17 C17            3.3867     6.5548    -3.6816 C.ar    
  18 C18            3.5344     7.9296    -3.7074 C.ar    
  19 N19            3.9635     8.5435    -4.7910 N.ar    
  20 C20            4.2701     7.8738    -5.8946 C.ar    
  21 C21            4.7505     8.6077    -7.0909 C.ar    
  22 C22            4.8783     9.9949    -7.0558 C.ar    
  23 C23            5.3257    10.6726    -8.1718 C.ar    
  24 C24            5.6466     9.9774    -9.3238 C.ar    
  25 C25            5.5217     8.6004    -9.3643 C.ar    
  26 C26            5.0812     7.9118    -8.2522 C.ar    
  27 Cl27          -1.4921    -0.8878     0.0121 Cl      
  28 H28           -0.9575     1.9034     0.0169 H       
  29 H29            1.2117    -1.7697    -0.0187 H       
  30 H30            3.3391    -0.5493    -0.0324 H       
  31 H31            0.8380     4.3323     0.0173 H       
  32 H32            4.3635     2.1320    -0.0277 H       
  33 H33            4.9340     5.5247    -1.9561 H       
  34 H34            2.3505     4.9620    -2.7104 H       
  35 H35            2.2309     6.5359    -1.8877 H       
  36 H36            4.3996     5.9428    -6.8363 H       
  37 H37            3.5892     4.7413    -4.8188 H       
  38 H38            3.2943     8.5078    -2.8273 H       
  39 H39            4.6274    10.5388    -6.1571 H       
  40 H40            5.4252    11.7477    -8.1457 H       
  41 H41            5.9957    10.5117   -10.1950 H       
  42 H42            5.7736     8.0626   -10.2664 H       
  43 H43            4.9886     6.8363    -8.2833 H       
@<TRIPOS>BOND
   1    1    2 ar
   2    1    5 ar
   3    1   28 1
   4    2    3 ar
   5    2   27 1
   6    3    4 ar
   7    3   29 1
   8    4    7 ar
   9    4   30 1
  10    5    7 ar
  11    5    6 1
  12    6    9 2
  13    6   31 1
  14    7    8 1
  15    8    9 1
  16    8   32 1
  17    9   10 1
  18   10   11 2
  19   10   12 2
  20   10   13 am
  21   13   14 1
  22   13   33 1
  23   14   17 1
  24   14   34 1
  25   14   35 1
  26   15   16 ar
  27   15   20 ar
  28   15   36 1
  29   16   17 ar
  30   16   37 1
  31   17   18 ar
  32   18   19 ar
  33   18   38 1
  34   19   20 ar
  35   20   21 1
  36   21   22 ar
  37   21   26 ar
  38   22   23 ar
  39   22   39 1
  40   23   24 ar
  41   23   40 1
  42   24   25 ar
  43   24   41 1
  44   25   26 ar
  45   25   42 1
  46   26   43 1

#	End of record

