#	Name: ASD02610019
#	Creating user name:	WinNT
#	Creation time:	15. 06. 2019 20:25

#	Modifying user name:	WinNT
#	Modification time:	15. 06. 2019 20:25

#	Program:	/corina/corina34_cracker 3.40 0067  02.08.2006

@<TRIPOS>MOLECULE
ASD02610019
  82   84    0    0    0
SMALL
NO_CHARGES


@<TRIPOS>ATOM
   1 C1             0.2224     1.0560    -0.3111 C.3     
   2 C2             0.5045    -0.4221    -0.5233 C.2     
   3 C3             1.9503    -0.5744    -0.6767 C.2     
   4 C4             2.5929     0.5777    -0.5455 C.2     
   5 C5             1.6119     1.6611    -0.1863 C.3     
   6 C6             4.0504     0.8525    -0.8253 C.3     
   7 C7             4.5531     1.9321     0.1157 C.3     
   8 C8             4.2859     3.3306    -0.3504 C.3     
   9 C9             2.9039     3.8135    -0.0091 C.3     
  10 C10            1.8412     3.0014    -0.7539 C.3     
  11 O11           -0.3190    -1.3124    -0.5586 O.2     
  12 C12            2.6319    -1.8900    -0.9515 C.3     
  13 O13           -0.5379     1.2626     0.9086 O.3     
  14 H14            1.7477     1.7962     0.8867 H       
  15 O15            0.5901     3.7377    -0.7245 O.3     
  16 C16            2.2778     2.8464    -2.2120 C.3     
  17 O17            4.4558     3.3827    -1.7915 O.3     
  18 C18            4.8689     4.5477    -2.3147 C.2     
  19 C19            5.0674     4.6771    -3.8030 C.3     
  20 O20            5.0815     5.4927    -1.5925 O.2     
  21 O21            4.8926    -0.2984    -0.5365 O.3     
  22 C22            6.1287     0.1443    -0.2252 C.2     
  23 C23            6.0517     1.5936     0.2261 C.3     
  24 O24            3.9409     1.7569     1.3949 O.3     
  25 C25            5.5375     6.0951    -4.1334 C.3     
  26 C26            5.7391     6.2264    -5.6444 C.3     
  27 C27           -1.8756     1.2734     0.7984 C.2     
  28 C28           -2.7308     1.4825     2.0215 C.3     
  29 C29           -4.2076     1.4511     1.6227 C.3     
  30 C30           -5.0758     1.6634     2.8644 C.3     
  31 C31           -6.5526     1.6320     2.4657 C.3     
  32 C32           -7.4208     1.8444     3.7074 C.3     
  33 O33           -2.3941     1.1154    -0.2815 O.2     
  34 O34            7.1414    -0.5112    -0.2941 O.2     
  35 O35            6.8207     2.4307    -0.6400 O.3     
  36 C36           -8.8976     1.8130     3.3086 C.3     
  37 C37           -9.7658     2.0253     4.5504 C.3     
  38 C38            6.5290     1.7322     1.6731 C.3     
  39 C39            0.0828     4.0292     0.4836 C.2     
  40 C40           -1.1968     4.8177     0.5933 C.3     
  41 O41            0.6520     3.6593     1.4831 O.2     
  42 H42            4.1771     1.1714    -1.8599 H       
  43 H43           -0.3038     1.4743    -1.1691 H       
  44 H44            5.0140     3.9984     0.1100 H       
  45 H45            2.7443     3.7129     1.0645 H       
  46 H46            2.8125     4.8634    -0.2871 H       
  47 H47            1.8842    -2.6806    -1.0142 H       
  48 H48            3.1749    -1.8279    -1.8946 H       
  49 H49            3.3298    -2.1132    -0.1445 H       
  50 H50            1.4442     2.4663    -2.8025 H       
  51 H51            2.5883     3.8153    -2.6033 H       
  52 H52            3.1121     2.1473    -2.2691 H       
  53 H53            5.8183     3.9592    -4.1331 H       
  54 H54            4.1253     4.4783    -4.3138 H       
  55 H55            4.2123     2.4107     2.0537 H       
  56 H56            4.7866     6.8130    -3.8033 H       
  57 H57            6.4796     6.2939    -3.6225 H       
  58 H58            6.4899     5.5086    -5.9745 H       
  59 H59            4.7970     6.0277    -6.1553 H       
  60 H60            6.0740     7.2366    -5.8798 H       
  61 H61           -2.5325     0.6902     2.7433 H       
  62 H62           -2.4956     2.4484     2.4684 H       
  63 H63           -4.4059     2.2434     0.9009 H       
  64 H64           -4.4428     0.4852     1.1757 H       
  65 H65           -4.8775     0.8711     3.5863 H       
  66 H66           -4.8406     2.6294     3.3114 H       
  67 H67           -6.7509     2.4243     1.7438 H       
  68 H68           -6.7878     0.6661     2.0187 H       
  69 H69           -7.2225     1.0521     4.4292 H       
  70 H70           -7.1856     2.8103     4.1544 H       
  71 H71            7.7720     2.2595    -0.6098 H       
  72 H72           -9.0959     2.6053     2.5868 H       
  73 H73           -9.1328     0.8471     2.8617 H       
  74 H74           -9.5675     1.2330     5.2722 H       
  75 H75           -9.5306     2.9912     4.9974 H       
  76 H76          -10.8179     2.0029     4.2663 H       
  77 H77            5.9648     1.0498     2.3087 H       
  78 H78            7.5899     1.4890     1.7307 H       
  79 H79            6.3723     2.7567     2.0109 H       
  80 H80           -1.5606     5.0606    -0.4051 H       
  81 H81           -1.9453     4.2243     1.1184 H       
  82 H82           -1.0099     5.7384     1.1459 H       
@<TRIPOS>BOND
   1    1    2 1
   2    1    5 1
   3    1   13 1
   4    1   43 1
   5    2    3 1
   6    2   11 2
   7    3    4 2
   8    3   12 1
   9    4    5 1
  10    4    6 1
  11    5   10 1
  12    5   14 1
  13    6    7 1
  14    6   21 1
  15    6   42 1
  16    7   23 1
  17    7   24 1
  18    7    8 1
  19    8    9 1
  20    8   17 1
  21    8   44 1
  22    9   10 1
  23    9   45 1
  24    9   46 1
  25   10   15 1
  26   10   16 1
  27   12   47 1
  28   12   48 1
  29   12   49 1
  30   13   27 1
  31   15   39 1
  32   16   50 1
  33   16   51 1
  34   16   52 1
  35   17   18 1
  36   18   19 1
  37   18   20 2
  38   19   25 1
  39   19   53 1
  40   19   54 1
  41   21   22 1
  42   22   23 1
  43   22   34 2
  44   23   35 1
  45   23   38 1
  46   24   55 1
  47   25   26 1
  48   25   56 1
  49   25   57 1
  50   26   58 1
  51   26   59 1
  52   26   60 1
  53   27   28 1
  54   27   33 2
  55   28   29 1
  56   28   61 1
  57   28   62 1
  58   29   30 1
  59   29   63 1
  60   29   64 1
  61   30   31 1
  62   30   65 1
  63   30   66 1
  64   31   32 1
  65   31   67 1
  66   31   68 1
  67   32   36 1
  68   32   69 1
  69   32   70 1
  70   35   71 1
  71   36   37 1
  72   36   72 1
  73   36   73 1
  74   37   74 1
  75   37   75 1
  76   37   76 1
  77   38   77 1
  78   38   78 1
  79   38   79 1
  80   39   40 1
  81   39   41 2
  82   40   80 1
  83   40   81 1
  84   40   82 1

#	End of record

