#	Name: ASD00840098
#	Creating user name:	WinNT
#	Creation time:	15. 06. 2019 18:37

#	Modifying user name:	WinNT
#	Modification time:	15. 06. 2019 18:37

#	Program:	/corina/corina34_cracker 3.40 0067  02.08.2006

@<TRIPOS>MOLECULE
ASD00840098
  76   79    0    0    0
SMALL
NO_CHARGES


@<TRIPOS>ATOM
   1 F1             3.9681     7.0083    -2.5330 F       
   2 O2            -0.0680     0.4058     0.2163 O.3     
   3 O3             0.1580     0.5213     2.8228 O.3     
   4 O4             1.8437    -1.1835    -7.3759 O.2     
   5 O5             2.3197     1.5596     6.2285 O.3     
   6 O6             0.5617     2.1353     5.0196 O.2     
   7 N7             1.7131     1.0084    -3.6006 N.pl3   
   8 N8             3.5444    -2.0707    -6.2550 N.am    
   9 C9             1.6063    -0.1496    -4.2800 C.2     
  10 C10            1.0064     1.3135    -2.3541 C.3     
  11 C11            2.5800     1.8594    -4.2357 C.2     
  12 C12            0.7479    -1.3213    -3.8782 C.3     
  13 C13            1.8604     0.8741    -1.1631 C.3     
  14 C14            2.3997    -0.0937    -5.3915 C.2     
  15 C15            3.0514     1.2260    -5.3694 C.2     
  16 C16            1.1224     1.1926     0.1387 C.3     
  17 C17            2.0263     0.8687     1.3299 C.3     
  18 C18            2.9462     3.2176    -3.7863 C.ar    
  19 C19           -0.2731    -1.6074    -4.9812 C.3     
  20 C20            1.6315    -2.5528    -3.6692 C.3     
  21 C21            4.0094     1.7655    -6.3607 C.ar    
  22 C22            1.3379     1.3028     2.6255 C.3     
  23 C23            2.5745    -1.1468    -6.4041 C.2     
  24 C24            2.2909     1.0941     3.8041 C.3     
  25 C25            4.2824     3.6236    -3.7988 C.ar    
  26 C26            1.9570     4.1029    -3.3526 C.ar    
  27 C27            5.2622     1.1723    -6.5189 C.ar    
  28 C28            3.6609     2.8657    -7.1446 C.ar    
  29 C29            4.6184     4.8933    -3.3784 C.ar    
  30 C30            2.3048     5.3702    -2.9345 C.ar    
  31 C31            6.1504     1.6796    -7.4448 C.ar    
  32 C32            4.5580     3.3635    -8.0671 C.ar    
  33 C33            3.6330     5.7658    -2.9441 C.ar    
  34 C34            3.6491    -3.1277    -7.1649 C.ar    
  35 C35            1.6605     1.6345     5.0616 C.2     
  36 C36            5.8009     2.7741    -8.2156 C.ar    
  37 C37            3.3591    -2.9216    -8.5074 C.ar    
  38 C38            4.0490    -4.3843    -6.7289 C.ar    
  39 C39            3.4635    -3.9675    -9.4033 C.ar    
  40 C40            4.1514    -5.4259    -7.6299 C.ar    
  41 C41            3.8559    -5.2189    -8.9649 C.ar    
  42 H42            0.8230     2.3862    -2.2936 H       
  43 H43            0.0556     0.7807    -2.3357 H       
  44 H44            0.2251    -1.0876    -2.9508 H       
  45 H45            2.0438    -0.1987    -1.2236 H       
  46 H46            2.8111     1.4068    -1.1815 H       
  47 H47            0.8605     2.2506     0.1584 H       
  48 H48            2.2158    -0.2042     1.3610 H       
  49 H49            2.9713     1.4016     1.2243 H       
  50 H50            2.3589    -2.3489    -2.8834 H       
  51 H51            1.0106    -3.4003    -3.3786 H       
  52 H52            2.1543    -2.7865    -4.5966 H       
  53 H53            0.2497    -1.8411    -5.9086 H       
  54 H54           -0.8939    -2.4549    -4.6906 H       
  55 H55           -0.9026    -0.7301    -5.1301 H       
  56 H56            1.0686     2.3568     2.5583 H       
  57 H57            2.4902     0.0294     3.9261 H       
  58 H58            3.2267     1.6191     3.6121 H       
  59 H59            5.0511     2.9444    -4.1366 H       
  60 H60            0.9216     3.7958    -3.3450 H       
  61 H61            0.0896    -0.5482     0.2038 H       
  62 H62            5.5363     0.3181    -5.9175 H       
  63 H63            2.6909     3.3264    -7.0299 H       
  64 H64            4.1697    -2.0026    -5.5166 H       
  65 H65            5.6514     5.2082    -3.3873 H       
  66 H66            1.5407     6.0558    -2.5993 H       
  67 H67            0.3226    -0.4291     2.8918 H       
  68 H68            7.1206     1.2216    -7.5680 H       
  69 H69            4.2893     4.2149    -8.6749 H       
  70 H70            6.4997     3.1677    -8.9388 H       
  71 H71            3.0519    -1.9447    -8.8503 H       
  72 H72            4.2799    -4.5466    -5.6864 H       
  73 H73            1.8748     1.9197     7.0080 H       
  74 H74            3.2381    -3.8079   -10.4474 H       
  75 H75            4.4622    -6.4033    -7.2915 H       
  76 H76            3.9361    -6.0353    -9.6674 H       
@<TRIPOS>BOND
   1    1   33 1
   2    2   61 1
   3    2   16 1
   4    3   67 1
   5    3   22 1
   6    4   23 2
   7    5   35 1
   8    5   73 1
   9    6   35 2
  10    7    9 1
  11    7   10 1
  12    7   11 1
  13    8   23 am
  14    8   34 1
  15    8   64 1
  16    9   12 1
  17    9   14 2
  18   10   13 1
  19   10   42 1
  20   10   43 1
  21   11   15 2
  22   11   18 1
  23   12   19 1
  24   12   20 1
  25   12   44 1
  26   13   16 1
  27   13   45 1
  28   13   46 1
  29   14   15 1
  30   14   23 1
  31   15   21 1
  32   16   17 1
  33   16   47 1
  34   17   22 1
  35   17   48 1
  36   17   49 1
  37   18   25 ar
  38   18   26 ar
  39   19   53 1
  40   19   54 1
  41   19   55 1
  42   20   50 1
  43   20   51 1
  44   20   52 1
  45   21   27 ar
  46   21   28 ar
  47   22   24 1
  48   22   56 1
  49   24   35 1
  50   24   57 1
  51   24   58 1
  52   25   29 ar
  53   25   59 1
  54   26   30 ar
  55   26   60 1
  56   27   31 ar
  57   27   62 1
  58   28   32 ar
  59   28   63 1
  60   29   33 ar
  61   29   65 1
  62   30   33 ar
  63   30   66 1
  64   31   36 ar
  65   31   68 1
  66   32   36 ar
  67   32   69 1
  68   34   37 ar
  69   34   38 ar
  70   36   70 1
  71   37   39 ar
  72   37   71 1
  73   38   40 ar
  74   38   72 1
  75   39   41 ar
  76   39   74 1
  77   40   41 ar
  78   40   75 1
  79   41   76 1

#	End of record

