#	Name: ASD04590349
#	Creating user name:	WinNT
#	Creation time:	15. 06. 2019 20:50

#	Modifying user name:	WinNT
#	Modification time:	15. 06. 2019 20:50

#	Program:	/corina/corina34_cracker 3.40 0067  02.08.2006

@<TRIPOS>MOLECULE
ASD04590349
  51   55    0    0    0
SMALL
NO_CHARGES


@<TRIPOS>ATOM
   1 C1            -0.0293     1.4009    -0.1009 C.ar    
   2 C2            -0.0025     0.0033    -0.0101 C.ar    
   3 C3             1.2133    -0.6702     0.0614 C.ar    
   4 C4             2.4037     0.0566     0.0416 C.ar    
   5 C5             2.3574     1.4610    -0.0505 C.ar    
   6 C6             1.1335     2.1158    -0.1205 C.ar    
   7 N7             3.7117    -0.2986     0.0946 N.2     
   8 C8             4.4605     0.7760     0.0421 C.2     
   9 N9             3.6682     1.8896    -0.0482 N.pl3   
  10 C10            5.9375     0.7847     0.0764 C.2     
  11 C11            6.7737    -0.3519     0.1698 C.2     
  12 C12            8.0587     0.0795     0.1717 C.2     
  13 N13            8.0431     1.4355     0.0831 N.pl3   
  14 N14            6.7079     1.8534     0.0195 N.2     
  15 N15            6.3488    -1.6880     0.2473 N.am    
  16 C16            7.2571    -2.6800     0.3329 C.2     
  17 C17            6.8103    -4.0852     0.4144 C.ar    
  18 O18            8.4445    -2.4180     0.3431 O.2     
  19 C19            6.5701    -4.6747     1.6585 C.ar    
  20 C20            6.1521    -5.9891     1.7265 C.ar    
  21 C21            5.9714    -6.7220     0.5672 C.ar    
  22 C22            6.2075    -6.1455    -0.6679 C.ar    
  23 C23            6.6200    -4.8303    -0.7525 C.ar    
  24 C24           -1.2679    -0.7576     0.0101 C.2     
  25 N25           -2.3288    -0.2828     0.6924 N.am    
  26 C26           -3.6350    -0.9574     0.6270 C.3     
  27 C27           -2.2137     0.9219     1.5295 C.3     
  28 C28           -2.7874     0.6045     2.9151 C.3     
  29 O29           -4.0998     0.0573     2.7671 O.3     
  30 C30           -4.1366    -1.1795     2.0585 C.3     
  31 Cl31           6.7973    -3.7573     3.1146 Cl      
  32 Cl32           6.9156    -4.1091    -2.3036 Cl      
  33 O33           -1.3527    -1.8123    -0.5886 O.2     
  34 H34           -0.9766     1.9163    -0.1602 H       
  35 H35            1.2349    -1.7477     0.1321 H       
  36 H36            1.1023     3.1930    -0.1914 H       
  37 H37            3.9726     2.8090    -0.1011 H       
  38 H38            8.9386    -0.5437     0.2330 H       
  39 H39            8.8218     2.0135     0.0641 H       
  40 H40            5.4016    -1.8970     0.2391 H       
  41 H41            5.9661    -6.4461     2.6871 H       
  42 H42            5.6446    -7.7496     0.6268 H       
  43 H43            6.0650    -6.7243    -1.5685 H       
  44 H44           -4.3436    -0.3334     0.0824 H       
  45 H45           -3.5275    -1.9176     0.1226 H       
  46 H46           -1.1654     1.2056     1.6223 H       
  47 H47           -2.7767     1.7384     1.0772 H       
  48 H48           -2.1458    -0.1192     3.4178 H       
  49 H49           -2.8387     1.5189     3.5061 H       
  50 H50           -5.1609    -1.5508     2.0272 H       
  51 H51           -3.5001    -1.9068     2.5623 H       
@<TRIPOS>BOND
   1    1    2 ar
   2    1    6 ar
   3    1   34 1
   4    2    3 ar
   5    2   24 1
   6    3    4 ar
   7    3   35 1
   8    4    5 ar
   9    4    7 1
  10    5    6 ar
  11    5    9 1
  12    6   36 1
  13    7    8 2
  14    8    9 1
  15    8   10 1
  16    9   37 1
  17   10   11 1
  18   10   14 2
  19   11   12 2
  20   11   15 1
  21   12   13 1
  22   12   38 1
  23   13   14 1
  24   13   39 1
  25   15   16 am
  26   15   40 1
  27   16   17 1
  28   16   18 2
  29   17   19 ar
  30   17   23 ar
  31   19   20 ar
  32   19   31 1
  33   20   21 ar
  34   20   41 1
  35   21   22 ar
  36   21   42 1
  37   22   23 ar
  38   22   43 1
  39   23   32 1
  40   24   25 am
  41   24   33 2
  42   25   26 1
  43   25   27 1
  44   26   30 1
  45   26   44 1
  46   26   45 1
  47   27   28 1
  48   27   46 1
  49   27   47 1
  50   28   29 1
  51   28   48 1
  52   28   49 1
  53   29   30 1
  54   30   50 1
  55   30   51 1

#	End of record

