#	Name: ASD01884185
#	Creating user name:	WinNT
#	Creation time:	15. 06. 2019 19:47

#	Modifying user name:	WinNT
#	Modification time:	15. 06. 2019 19:47

#	Program:	/corina/corina34_cracker 3.40 0067  02.08.2006

@<TRIPOS>MOLECULE
ASD01884185
  35   38    0    0    0
SMALL
NO_CHARGES


@<TRIPOS>ATOM
   1 C1            -0.0180     1.4770     0.0102 C.ar    
   2 C2             0.0021    -0.0041     0.0020 C.ar    
   3 C3            -0.7534    -0.7263     0.9277 C.ar    
   4 C4            -0.7390    -2.0985     0.9253 C.ar    
   5 C5             0.0339    -2.8109    -0.0067 C.ar    
   6 C6             0.7843    -2.0748    -0.9271 C.ar    
   7 C7             0.7710    -0.6944    -0.9339 C.ar    
   8 N8             0.1539    -4.1817    -0.1375 N.am    
   9 C9             0.9472    -4.6679    -1.0967 C.2     
  10 S10            1.6240    -3.2618    -1.9351 S.3     
  11 C11           -0.5740    -5.0840     0.7582 C.3     
  12 C12           -1.9418    -5.4082     0.1541 C.3     
  13 C13           -2.8118    -6.4330     0.8848 C.3     
  14 O14            1.1617    -5.8401    -1.3442 O.2     
  15 C15           -3.1812    -4.9488     0.9247 C.3     
  16 F16           -2.9770    -4.2644     2.1277 F       
  17 F17           -4.2910    -4.5390     0.1780 F       
  18 C18            1.1817     2.2088     0.0026 C.ar    
  19 N19            1.1577     3.5364     0.0100 N.ar    
  20 C20            0.0270     4.2080     0.0245 C.ar    
  21 C21           -1.1963     3.5550     0.0331 C.ar    
  22 C22           -1.2308     2.1722     0.0196 C.ar    
  23 C23            2.4366     1.5191    -0.0126 C.1     
  24 N24            3.4321     0.9720    -0.0247 N.1     
  25 H25           -1.3551    -0.1996     1.6536 H       
  26 H26           -1.3299    -2.6384     1.6503 H       
  27 H27            1.3610    -0.1507    -1.6569 H       
  28 H28           -0.0057    -6.0053     0.8862 H       
  29 H29           -0.7093    -4.6030     1.7269 H       
  30 H30           -1.9908    -5.3915    -0.9346 H       
  31 H31           -3.4334    -7.0902     0.2768 H       
  32 H32           -2.4096    -6.8762     1.7959 H       
  33 H33            0.0517     5.2877     0.0301 H       
  34 H34           -2.1154     4.1219     0.0457 H       
  35 H35           -2.1719     1.6424     0.0260 H       
@<TRIPOS>BOND
   1    1    2 1
   2    1   18 ar
   3    1   22 ar
   4    2    3 ar
   5    2    7 ar
   6    3    4 ar
   7    3   25 1
   8    4    5 ar
   9    4   26 1
  10    5    6 ar
  11    5    8 1
  12    6    7 ar
  13    6   10 1
  14    7   27 1
  15    8    9 am
  16    8   11 1
  17    9   10 1
  18    9   14 2
  19   11   12 1
  20   11   28 1
  21   11   29 1
  22   12   13 1
  23   12   15 1
  24   12   30 1
  25   13   15 1
  26   13   31 1
  27   13   32 1
  28   15   16 1
  29   15   17 1
  30   18   19 ar
  31   18   23 1
  32   19   20 ar
  33   20   21 ar
  34   20   33 1
  35   21   22 ar
  36   21   34 1
  37   22   35 1
  38   23   24 3

#	End of record

