#	Name: ASD01231295
#	Creating user name:	WinNT
#	Creation time:	15. 06. 2019 19:15

#	Modifying user name:	WinNT
#	Modification time:	15. 06. 2019 19:15

#	Program:	/corina/corina34_cracker 3.40 0067  02.08.2006

@<TRIPOS>MOLECULE
ASD01231295
  52   54    0    0    0
SMALL
NO_CHARGES


@<TRIPOS>ATOM
   1 C1             0.8637    -1.3529     3.5334 C.ar    
   2 C2             1.4288    -1.7315     2.3308 C.ar    
   3 C3             0.6812    -1.6675     1.1639 C.ar    
   4 C4            -0.6329    -1.2232     1.2080 C.ar    
   5 C5            -1.1929    -0.8460     2.4128 C.ar    
   6 C6            -0.4455    -0.9107     3.5746 C.ar    
   7 S7             1.8102    -1.4408     5.0170 S.o2    
   8 O8             0.8763    -1.5399     6.0835 O.2     
   9 O9             2.8306    -2.4023     4.7856 O.2     
  10 N10            2.5740     0.0173     5.1983 N.am    
  11 O11            1.2347    -2.0387    -0.0203 O.3     
  12 C12            6.3032    -4.4766     0.0906 C.3     
  13 C13            5.8817    -5.8224     0.7177 C.3     
  14 C14            4.3874    -5.9099     0.3414 C.3     
  15 C15            3.9347    -4.4743     0.1806 C.ar    
  16 C16            2.6609    -3.9335     0.1617 C.ar    
  17 C17            2.4861    -2.5680    -0.0014 C.ar    
  18 C18            3.5927    -1.7432    -0.1459 C.ar    
  19 C19            4.8615    -2.2856    -0.1265 C.ar    
  20 C20            5.0357    -3.6505     0.0365 C.ar    
  21 S21            7.9868    -7.5124     0.8826 S.o2    
  22 O22            8.4543    -8.5429     0.0231 O.2     
  23 O23            8.7723    -6.3551     1.1334 O.2     
  24 N24            6.6337    -6.9313     0.1251 N.am    
  25 C25            7.3695    -8.2120     2.4382 C.3     
  26 C26            6.3635    -9.3238     2.1337 C.3     
  27 C27            8.5396    -8.7881     3.2382 C.3     
  28 C28            1.7879     1.2333     5.4211 C.3     
  29 H29            2.4517    -2.0765     2.2991 H       
  30 H30           -1.2169    -1.1721     0.3010 H       
  31 H31           -2.2155    -0.5002     2.4477 H       
  32 H32           -0.8853    -0.6152     4.5157 H       
  33 H33            3.5419     0.0662     5.1570 H       
  34 H34            7.0486    -3.9851     0.7157 H       
  35 H35            6.6953    -4.6339    -0.9142 H       
  36 H36            6.0080    -5.8019     1.8002 H       
  37 H37            4.2646    -6.4524    -0.5960 H       
  38 H38            3.8247    -6.3970     1.1377 H       
  39 H39            1.8008    -4.5769     0.2742 H       
  40 H40            3.4613    -0.6788    -0.2728 H       
  41 H41            5.7224    -1.6434    -0.2393 H       
  42 H42            6.3391    -7.3251    -0.7109 H       
  43 H43            6.8816    -7.4300     3.0200 H       
  44 H44            5.9925    -9.7442     3.0684 H       
  45 H45            5.5299    -8.9134     1.5637 H       
  46 H46            6.8513   -10.1059     1.5518 H       
  47 H47            9.2563    -7.9960     3.4552 H       
  48 H48            8.1686    -9.2085     4.1729 H       
  49 H49            9.0274    -9.5701     2.6564 H       
  50 H50            1.1159     1.3911     4.5775 H       
  51 H51            1.2043     1.1262     6.3354 H       
  52 H52            2.4586     2.0872     5.5160 H       
@<TRIPOS>BOND
   1    1    2 ar
   2    1    6 ar
   3    1    7 1
   4    2    3 ar
   5    2   29 1
   6    3    4 ar
   7    3   11 1
   8    4    5 ar
   9    4   30 1
  10    5    6 ar
  11    5   31 1
  12    6   32 1
  13    7    8 2
  14    7    9 2
  15    7   10 am
  16   10   28 1
  17   10   33 1
  18   11   17 1
  19   12   13 1
  20   12   20 1
  21   12   34 1
  22   12   35 1
  23   13   14 1
  24   13   24 1
  25   13   36 1
  26   14   15 1
  27   14   37 1
  28   14   38 1
  29   15   16 ar
  30   15   20 ar
  31   16   17 ar
  32   16   39 1
  33   17   18 ar
  34   18   19 ar
  35   18   40 1
  36   19   20 ar
  37   19   41 1
  38   21   22 2
  39   21   23 2
  40   21   24 am
  41   21   25 1
  42   24   42 1
  43   25   26 1
  44   25   27 1
  45   25   43 1
  46   26   44 1
  47   26   45 1
  48   26   46 1
  49   27   47 1
  50   27   48 1
  51   27   49 1
  52   28   50 1
  53   28   51 1
  54   28   52 1

#	End of record

