#	Name: ASD09790007
#	Creating user name:	WinNT
#	Creation time:	15. 06. 2019 21:23

#	Modifying user name:	WinNT
#	Modification time:	15. 06. 2019 21:23

#	Program:	/corina/corina34_cracker 3.40 0067  02.08.2006

@<TRIPOS>MOLECULE
ASD09790007
  36   39    0    0    0
SMALL
NO_CHARGES


@<TRIPOS>ATOM
   1 C1            -0.2543     2.1076    -0.5398 C.2     
   2 C2            -0.4536     0.6718    -0.2435 C.ar    
   3 C3             0.5834    -0.0301     0.3905 C.ar    
   4 O4             1.7331     0.5850     0.7326 O.3     
   5 C5             2.0769     1.7869     0.2275 C.ar    
   6 C6             1.1276     2.6045    -0.4113 C.ar    
   7 C7            -1.6395     0.0257    -0.5850 C.ar    
   8 C8            -1.7906    -1.3147    -0.2998 C.ar    
   9 C9            -0.7674    -2.0131     0.3226 C.ar    
  10 C10            0.4094    -1.3826     0.6666 C.ar    
  11 C11            1.4930     3.8593    -0.9148 C.ar    
  12 C12            3.3863     2.2339     0.3345 C.ar    
  13 C13            3.7443     3.4739    -0.1721 C.ar    
  14 C14            2.8033     4.2864    -0.7940 C.ar    
  15 O15           -1.1737     2.8327    -0.8739 O.2     
  16 O16            0.5691     4.6497    -1.5167 O.3     
  17 O17            5.0290     3.8985    -0.0614 O.3     
  18 C18            5.2884     4.8226     0.8840 C.2     
  19 C19            6.6407     5.4161     0.9875 C.ar    
  20 O20            4.4131     5.1686     1.6513 O.2     
  21 N21            7.5923     5.0378     0.1423 N.ar    
  22 C22            8.8058     5.5406     0.2000 C.ar    
  23 C23            6.9027     6.3713     1.9674 C.ar    
  24 C24            8.1737     6.9183     2.0515 C.ar    
  25 C25            9.1383     6.4908     1.1530 C.ar    
  26 H26           -2.4355     0.5713    -1.0698 H       
  27 H27           -2.7078    -1.8215    -0.5615 H       
  28 H28           -0.8938    -3.0632     0.5409 H       
  29 H29            1.1977    -1.9395     1.1512 H       
  30 H30            4.1290     1.6139     0.8144 H       
  31 H31            3.0948     5.2514    -1.1816 H       
  32 H32            0.1090     5.2476    -0.9118 H       
  33 H33            9.5539     5.2085    -0.5046 H       
  34 H34            6.1266     6.6814     2.6514 H       
  35 H35            8.4069     7.6608     2.8003 H       
  36 H36           10.1381     6.8973     1.1920 H       
@<TRIPOS>BOND
   1    1    2 1
   2    1    6 1
   3    1   15 2
   4    2    3 ar
   5    2    7 ar
   6    3    4 1
   7    3   10 ar
   8    4    5 1
   9    5   12 ar
  10    5    6 ar
  11    6   11 ar
  12    7    8 ar
  13    7   26 1
  14    8    9 ar
  15    8   27 1
  16    9   10 ar
  17    9   28 1
  18   10   29 1
  19   11   14 ar
  20   11   16 1
  21   12   13 ar
  22   12   30 1
  23   13   14 ar
  24   13   17 1
  25   14   31 1
  26   16   32 1
  27   17   18 1
  28   18   19 1
  29   18   20 2
  30   19   23 ar
  31   19   21 ar
  32   21   22 ar
  33   22   25 ar
  34   22   33 1
  35   23   24 ar
  36   23   34 1
  37   24   25 ar
  38   24   35 1
  39   25   36 1

#	End of record

