#	Name: ASD00311162
#	Creating user name:	WinNT
#	Creation time:	15. 06. 2019 18:34

#	Modifying user name:	WinNT
#	Modification time:	15. 06. 2019 18:34

#	Program:	/corina/corina34_cracker 3.40 0067  02.08.2006

@<TRIPOS>MOLECULE
ASD00311162
  33   36    0    0    0
SMALL
NO_CHARGES


@<TRIPOS>ATOM
   1 C1            -0.0167     1.3769     0.0096 C.2     
   2 C2             0.0021    -0.0041     0.0020 C.2     
   3 C3             1.2596    -0.6767    -0.0132 C.2     
   4 C4             2.4307     0.0661    -0.0199 C.2     
   5 C5             2.3575     1.4729    -0.0117 C.2     
   6 N6             1.1654     2.0891     0.0022 N.am    
   7 C7            -1.3432    -0.5757     0.0118 C.2     
   8 C8            -2.3233     0.3265     0.0260 C.2     
   9 S9            -1.6789     1.9563     0.0358 S.3     
  10 O10            3.3832     2.1345    -0.0176 O.2     
  11 C11            4.1672    -1.3681    -1.0682 C.2     
  12 C12            3.7490    -0.6150    -0.0352 C.2     
  13 C13            4.6557    -0.5263     1.0192 C.2     
  14 C14            5.7907    -1.1987     0.8405 C.2     
  15 S15            5.7696    -2.0045    -0.7220 S.3     
  16 C16           -1.5955    -2.0357     0.0056 C.ar    
  17 C17           -2.2063    -2.6452     1.1011 C.ar    
  18 C18           -2.4391    -4.0052     1.0892 C.ar    
  19 C19           -2.0675    -4.7639    -0.0063 C.ar    
  20 C20           -1.4612    -4.1649    -1.0960 C.ar    
  21 C21           -1.2284    -2.8048    -1.0982 C.ar    
  22 O22            1.3096    -2.0301    -0.0204 O.3     
  23 Cl23          -4.0155    -0.0611     0.0395 Cl      
  24 H24            1.1338     3.0586     0.0073 H       
  25 H25            3.6035    -1.5569    -1.9699 H       
  26 H26            4.4532     0.0446     1.9133 H       
  27 H27            6.6040    -1.2422     1.5497 H       
  28 H28           -2.4962    -2.0541     1.9572 H       
  29 H29           -2.9120    -4.4784     1.9371 H       
  30 H30           -2.2511    -5.8282    -0.0107 H       
  31 H31           -1.1733    -4.7624    -1.9484 H       
  32 H32           -0.7591    -2.3376    -1.9514 H       
  33 H33            2.2069    -2.3904    -0.0307 H       
@<TRIPOS>BOND
   1    1    2 2
   2    1    6 1
   3    1    9 1
   4    2    3 1
   5    2    7 1
   6    3    4 2
   7    3   22 1
   8    4    5 1
   9    4   12 1
  10    5    6 am
  11    5   10 2
  12    6   24 1
  13    7    8 2
  14    7   16 1
  15    8    9 1
  16    8   23 1
  17   11   12 2
  18   11   15 1
  19   11   25 1
  20   12   13 1
  21   13   14 2
  22   13   26 1
  23   14   15 1
  24   14   27 1
  25   16   17 ar
  26   16   21 ar
  27   17   18 ar
  28   17   28 1
  29   18   19 ar
  30   18   29 1
  31   19   20 ar
  32   19   30 1
  33   20   21 ar
  34   20   31 1
  35   21   32 1
  36   22   33 1

#	End of record

