#	Name: ASD03091680
#	Creating user name:	WinNT
#	Creation time:	15. 06. 2019 20:31

#	Modifying user name:	WinNT
#	Modification time:	15. 06. 2019 20:31

#	Program:	/corina/corina34_cracker 3.40 0067  02.08.2006

@<TRIPOS>MOLECULE
ASD03091680
  41   43    0    0    0
SMALL
NO_CHARGES


@<TRIPOS>ATOM
   1 Cl1            0.0000     0.0000     0.0000 Cl      
   2 H2             0.0000     1.3700     0.0000 H       
   3 C3            14.5241    10.3503     6.5698 C.ar    
   4 C4            14.5431     8.9486     6.5621 C.ar    
   5 C5            15.7611     8.2671     6.5468 C.ar    
   6 C6            16.9553     8.9762     6.5396 C.ar    
   7 C7            16.9344    10.3795     6.5474 C.ar    
   8 C8            15.7568    11.0506     6.5618 C.ar    
   9 S9            12.8926     8.3369     6.5751 S.3     
  10 C10           12.2370     9.9645     6.5904 C.2     
  11 C11           13.2211    10.8703     6.5907 C.2     
  12 C12           10.8020    10.2883     6.6059 C.2     
  13 O13           10.4407    11.4497     6.6153 O.2     
  14 N14            9.8878     9.2981     6.6097 N.am    
  15 N15            6.9513     8.8766     8.4057 N.3     
  16 C16            7.9998     9.8488     8.0683 C.3     
  17 C17            8.4588     9.6205     6.6252 C.3     
  18 C18            7.6618     8.4522     6.0313 C.3     
  19 C19            6.1689     8.8001     6.0868 C.3     
  20 C20            5.7733     9.0505     7.5447 C.3     
  21 C21            7.4618     7.5010     8.3269 C.3     
  22 C22            7.9061     7.2060     6.8915 C.3     
  23 C23           18.2050     8.2772     6.5249 C.1     
  24 N24           19.1963     7.7226     6.5132 N.1     
  25 H25           15.7750     7.1872     6.5408 H       
  26 H26           17.8641    10.9291     6.5421 H       
  27 H27           15.7575    12.1306     6.5676 H       
  28 H28           13.0256    11.9324     6.5991 H       
  29 H29           10.1759     8.3719     6.6022 H       
  30 H30            7.6044    10.8596     8.1685 H       
  31 H31            8.8457     9.7203     8.7435 H       
  32 H32            8.2792    10.5211     6.0380 H       
  33 H33            7.9675     8.2758     5.0000 H       
  34 H34            5.9810     9.6980     5.4980 H       
  35 H35            5.5855     7.9706     5.6874 H       
  36 H36            5.0000     8.3408     7.8388 H       
  37 H37            5.3934    10.0668     7.6491 H       
  38 H38            8.3112     7.3891     9.0008 H       
  39 H39            6.6746     6.8040     8.6145 H       
  40 H40            7.3296     6.3700     6.4953 H       
  41 H41            8.9673     6.9575     6.8815 H       
@<TRIPOS>BOND
   1    1    2 1
   2    3    4 ar
   3    3    8 ar
   4    3   11 1
   5    4    5 ar
   6    4    9 1
   7    5    6 ar
   8    5   25 1
   9    6    7 ar
  10    6   23 1
  11    7    8 ar
  12    7   26 1
  13    8   27 1
  14    9   10 1
  15   10   11 2
  16   10   12 1
  17   11   28 1
  18   12   13 2
  19   12   14 am
  20   14   17 1
  21   14   29 1
  22   15   16 1
  23   15   20 1
  24   15   21 1
  25   16   17 1
  26   16   30 1
  27   16   31 1
  28   17   18 1
  29   17   32 1
  30   18   19 1
  31   18   22 1
  32   18   33 1
  33   19   20 1
  34   19   34 1
  35   19   35 1
  36   20   36 1
  37   20   37 1
  38   21   22 1
  39   21   38 1
  40   21   39 1
  41   22   40 1
  42   22   41 1
  43   23   24 3

#	End of record

