#	Name: ASD01880377
#	Creating user name:	WinNT
#	Creation time:	15. 06. 2019 19:40

#	Modifying user name:	WinNT
#	Modification time:	15. 06. 2019 19:40

#	Program:	/corina/corina34_cracker 3.40 0067  02.08.2006

@<TRIPOS>MOLECULE
ASD01880377
  34   36    0    0    0
SMALL
NO_CHARGES


@<TRIPOS>ATOM
   1 C1            -0.0158     1.3166     0.0093 C.ar    
   2 N2             0.0021    -0.0041     0.0020 N.ar    
   3 C3             1.1445    -0.6746    -0.0125 C.ar    
   4 C4             2.3648     0.0485    -0.0202 C.ar    
   5 C5             2.2891     1.4440    -0.0120 C.ar    
   6 N6             1.0857     2.0309     0.0026 N.ar    
   7 C7             3.7373    -0.4211    -0.0353 C.2     
   8 C8             4.6485     0.5323    -0.0385 C.2     
   9 S9             3.9102     2.1228    -0.0232 S.3     
  10 C10            6.1352     0.2862    -0.0535 C.3     
  11 N11            1.1474    -2.0578    -0.0195 N.3     
  12 C12            6.6251     0.2107    -1.5010 C.3     
  13 C13           -0.2224    -2.5870    -0.0088 C.3     
  14 C14           -0.1839    -4.1090    -0.1636 C.3     
  15 C15            0.6258    -4.7138     0.9866 C.3     
  16 C16            2.0329    -4.1102     0.9825 C.3     
  17 C17            1.9302    -2.5882     1.1041 C.3     
  18 H18           -0.9682     1.8258     0.0165 H       
  19 H19            3.9931    -1.4704    -0.0429 H       
  20 H20            6.6437     1.1022     0.4601 H       
  21 H21            6.3530    -0.6539     0.4533 H       
  22 H22            6.4073     1.1508    -2.0078 H       
  23 H23            7.7004     0.0327    -1.5118 H       
  24 H24            6.1166    -0.6053    -2.0145 H       
  25 H25           -0.7037    -2.3300     0.9348 H       
  26 H26           -0.7861    -2.1521    -0.8342 H       
  27 H27           -1.2000    -4.5030    -0.1400 H       
  28 H28            0.2849    -4.3665    -1.1134 H       
  29 H29            0.1360    -4.4895     1.9342 H       
  30 H30            0.6924    -5.7940     0.8567 H       
  31 H31            2.6008    -4.5051     1.8250 H       
  32 H32            2.5366    -4.3677     0.0508 H       
  33 H33            2.9299    -2.1542     1.0870 H       
  34 H34            1.4388    -2.3311     2.0425 H       
@<TRIPOS>BOND
   1    1    2 ar
   2    1    6 ar
   3    1   18 1
   4    2    3 ar
   5    3    4 ar
   6    3   11 1
   7    4    5 ar
   8    4    7 1
   9    5    6 ar
  10    5    9 1
  11    7    8 2
  12    7   19 1
  13    8    9 1
  14    8   10 1
  15   10   12 1
  16   10   20 1
  17   10   21 1
  18   11   13 1
  19   11   17 1
  20   12   22 1
  21   12   23 1
  22   12   24 1
  23   13   14 1
  24   13   25 1
  25   13   26 1
  26   14   15 1
  27   14   27 1
  28   14   28 1
  29   15   16 1
  30   15   29 1
  31   15   30 1
  32   16   17 1
  33   16   31 1
  34   16   32 1
  35   17   33 1
  36   17   34 1

#	End of record

