#	Name: ASD01810433
#	Creating user name:	WinNT
#	Creation time:	15. 06. 2019 19:24

#	Modifying user name:	WinNT
#	Modification time:	15. 06. 2019 19:24

#	Program:	/corina/corina34_cracker 3.40 0067  02.08.2006

@<TRIPOS>MOLECULE
ASD01810433
  40   43    0    0    0
SMALL
NO_CHARGES


@<TRIPOS>ATOM
   1 C1            -0.0170     1.4048     0.0098 C.2     
   2 C2             0.0021    -0.0041     0.0020 C.2     
   3 N3             1.1783     2.1261     0.0022 N.pl3   
   4 C4             2.3804     1.5468    -0.0128 C.2     
   5 C5             2.5284     0.1743    -0.0221 C.2     
   6 C6             1.3319    -0.6743    -0.0152 C.2     
   7 O7             1.4231    -1.8893    -0.0231 O.2     
   8 C8             3.8674    -0.4290    -0.0392 C.2     
   9 C9             1.1096     3.5895     0.0108 C.3     
  10 C10            1.0996     4.0836     1.4344 C.ar    
  11 O11            4.8541     0.2814    -0.0453 O.2     
  12 O12            4.0024    -1.7704    -0.0482 O.3     
  13 C13            2.2931     4.3659     2.0742 C.ar    
  14 C14            2.2898     4.8187     3.3780 C.ar    
  15 C15            1.0813     4.9914     4.0497 C.ar    
  16 C16           -0.1179     4.7056     3.4004 C.ar    
  17 C17           -0.1032     4.2587     2.0946 C.ar    
  18 C18            1.0715     5.4775     5.4517 C.ar    
  19 C19           -0.1370     5.6502     6.1235 C.ar    
  20 C20           -0.1402     6.1026     7.4274 C.ar    
  21 C21            1.0532     6.3849     8.0672 C.ar    
  22 C22            2.2557     6.2157     7.4049 C.ar    
  23 C23            2.2710     5.7574     6.1031 C.ar    
  24 N24           -1.1861    -0.5742     0.0107 N.2     
  25 S25           -2.3113     0.5015     0.0277 S.3     
  26 C26           -1.2962     1.8831     0.0302 C.2     
  27 H27            3.2628     2.1696    -0.0182 H       
  28 H28            1.9766     3.9970    -0.5092 H       
  29 H29            0.1987     3.9134    -0.4927 H       
  30 H30            4.9035    -2.1208    -0.0594 H       
  31 H31            3.2292     4.2313     1.5527 H       
  32 H32            3.2222     5.0384     3.8767 H       
  33 H33           -1.0574     4.8377     3.9164 H       
  34 H34           -1.0321     4.0368     1.5903 H       
  35 H35           -1.0694     5.4308     5.6246 H       
  36 H36           -1.0763     6.2368     7.9490 H       
  37 H37            1.0460     6.7390     9.0874 H       
  38 H38            3.1846     6.4379     7.9091 H       
  39 H39            3.2105     5.6254     5.5871 H       
  40 H40           -1.6047     2.9180     0.0404 H       
@<TRIPOS>BOND
   1    1    2 1
   2    1    3 1
   3    1   26 2
   4    2   24 2
   5    2    6 1
   6    3    4 1
   7    3    9 1
   8    4    5 2
   9    4   27 1
  10    5    6 1
  11    5    8 1
  12    6    7 2
  13    8   11 2
  14    8   12 1
  15    9   10 1
  16    9   28 1
  17    9   29 1
  18   10   13 ar
  19   10   17 ar
  20   12   30 1
  21   13   14 ar
  22   13   31 1
  23   14   15 ar
  24   14   32 1
  25   15   16 ar
  26   15   18 1
  27   16   17 ar
  28   16   33 1
  29   17   34 1
  30   18   19 ar
  31   18   23 ar
  32   19   20 ar
  33   19   35 1
  34   20   21 ar
  35   20   36 1
  36   21   22 ar
  37   21   37 1
  38   22   23 ar
  39   22   38 1
  40   23   39 1
  41   24   25 1
  42   25   26 1
  43   26   40 1

#	End of record

