#	Name: ASD01190235
#	Creating user name:	WinNT
#	Creation time:	15. 06. 2019 19:08

#	Modifying user name:	WinNT
#	Modification time:	15. 06. 2019 19:08

#	Program:	/corina/corina34_cracker 3.40 0067  02.08.2006

@<TRIPOS>MOLECULE
ASD01190235
  51   54    0    0    0
SMALL
NO_CHARGES


@<TRIPOS>ATOM
   1 C1            -0.7030     0.4096     0.1923 C.2     
   2 C2            -0.1128    -0.8553    -0.3757 C.3     
   3 O3             0.0181     1.2360     0.7101 O.2     
   4 N4            -2.0314     0.6251     0.1201 N.am    
   5 C5            -2.6051     1.8548     0.6723 C.3     
   6 N6             1.3390    -0.8479    -0.1796 N.pl3   
   7 C7             2.2504    -0.1730    -0.9583 C.2     
   8 C8             3.5042    -0.4239    -0.4427 C.2     
   9 C9             3.3336    -1.2639     0.6637 C.2     
  10 C10            2.0084    -1.5010     0.8045 C.2     
  11 C11            4.4302    -1.8038     1.5452 C.3     
  12 C12            5.3336    -0.6546     1.9971 C.3     
  13 O13            3.8536    -2.4349     2.6903 O.3     
  14 N14            7.5106    -5.3727    -1.5180 N.pl3   
  15 N15            7.8219    -4.5263    -2.5872 N.2     
  16 C16            7.2857    -3.3535    -2.4005 C.2     
  17 C17            6.5634    -3.3892    -1.1328 C.ar    
  18 C18            5.8073    -2.4539    -0.4175 C.ar    
  19 C19            5.2451    -2.8100     0.7741 C.ar    
  20 C20            5.4173    -4.0914     1.2832 C.ar    
  21 C21            6.1515    -5.0217     0.6034 C.ar    
  22 C22            6.7366    -4.6874    -0.6148 C.ar    
  23 C23            7.9180    -6.7072    -1.3922 C.ar    
  24 C24            8.0236    -7.5112    -2.5194 C.ar    
  25 C25            8.4254    -8.8264    -2.3931 C.ar    
  26 C26            8.7229    -9.3436    -1.1434 C.ar    
  27 C27            8.6183    -8.5434    -0.0180 C.ar    
  28 C28            8.2224    -7.2261    -0.1405 C.ar    
  29 F29            9.1154   -10.6306    -1.0219 F       
  30 F30            4.5771     0.2795     2.7129 F       
  31 F31            6.3516    -1.1558     2.8154 F       
  32 F32            5.8981    -0.0367     0.8760 F       
  33 C33            1.9514     0.6411    -2.0977 C.1     
  34 N34            1.7141     1.2870    -3.0016 N.1     
  35 H35           -0.5438    -1.7177     0.1329 H       
  36 H36           -0.3352    -0.9134    -1.4412 H       
  37 H37           -2.6077    -0.0340    -0.2976 H       
  38 H38           -2.3870     1.9105     1.7388 H       
  39 H39           -2.1706     2.7173     0.1670 H       
  40 H40           -3.6847     1.8515     0.5220 H       
  41 H41            4.4415    -0.0441    -0.8216 H       
  42 H42            1.5575    -2.1122     1.5723 H       
  43 H43            3.2677    -3.1745     2.4785 H       
  44 H44            7.3624    -2.5058    -3.0653 H       
  45 H45            5.6696    -1.4557    -0.8061 H       
  46 H46            4.9655    -4.3551     2.2281 H       
  47 H47            6.2780    -6.0140     1.0103 H       
  48 H48            7.7912    -7.1084    -3.4942 H       
  49 H49            8.5072    -9.4522    -3.2696 H       
  50 H50            8.8505    -8.9487     0.9558 H       
  51 H51            8.1456    -6.6010     0.7368 H       
@<TRIPOS>BOND
   1    1    2 1
   2    1    3 2
   3    1    4 am
   4    2    6 1
   5    2   35 1
   6    2   36 1
   7    4    5 1
   8    4   37 1
   9    5   38 1
  10    5   39 1
  11    5   40 1
  12    6    7 1
  13    6   10 1
  14    7    8 2
  15    7   33 1
  16    8    9 1
  17    8   41 1
  18    9   10 2
  19    9   11 1
  20   10   42 1
  21   11   12 1
  22   11   13 1
  23   11   19 1
  24   12   30 1
  25   12   31 1
  26   12   32 1
  27   13   43 1
  28   14   15 1
  29   14   22 1
  30   14   23 1
  31   15   16 2
  32   16   17 1
  33   16   44 1
  34   17   18 ar
  35   17   22 ar
  36   18   19 ar
  37   18   45 1
  38   19   20 ar
  39   20   21 ar
  40   20   46 1
  41   21   22 ar
  42   21   47 1
  43   23   24 ar
  44   23   28 ar
  45   24   25 ar
  46   24   48 1
  47   25   26 ar
  48   25   49 1
  49   26   27 ar
  50   26   29 1
  51   27   28 ar
  52   27   50 1
  53   28   51 1
  54   33   34 3

#	End of record

