#	Name: ASD00843903
#	Creating user name:	WinNT
#	Creation time:	15. 06. 2019 18:48

#	Modifying user name:	WinNT
#	Modification time:	15. 06. 2019 18:48

#	Program:	/corina/corina34_cracker 3.40 0067  02.08.2006

@<TRIPOS>MOLECULE
ASD00843903
  98  103    0    0    0
SMALL
NO_CHARGES


@<TRIPOS>ATOM
   1 F1            -0.1145    -3.1353     4.7190 F       
   2 N2            -0.0159     1.3183     0.0093 N.ar    
   3 C3             0.0021    -0.0041     0.0020 C.ar    
   4 C4             1.2069    -0.6955    -0.0132 C.ar    
   5 C5             2.3925     0.0180    -0.0207 C.ar    
   6 C6             2.3308     1.4049    -0.0127 C.ar    
   7 C7             1.0980     2.0259     0.0025 C.ar    
   8 C8             1.2224    -2.2024    -0.0209 C.3     
   9 C9             0.4763    -2.7343    -1.2260 C.2     
  10 O10            2.5880    -2.6958    -0.0097 O.3     
  11 C11            3.3814    -2.3221    -1.0313 C.2     
  12 N12            4.6600    -2.7452    -1.0812 N.am    
  13 O13            2.9446    -1.6033    -1.9082 O.2     
  14 C14            5.5380    -2.3458    -2.1895 C.3     
  15 C15            6.1423    -3.6053    -2.8182 C.3     
  16 C16            6.8368    -4.4299    -1.7320 C.3     
  17 C17            5.8107    -4.8595    -0.6810 C.3     
  18 C18            5.2042    -3.6096    -0.0251 C.3     
  19 N19            7.4461    -5.6219    -2.3370 N.3     
  20 C20            8.2232    -6.3774    -1.3445 C.3     
  21 C21            8.7741    -7.6496    -1.9929 C.3     
  22 N22            9.6094    -7.2864    -3.1461 N.3     
  23 C23            8.8323    -6.5309    -4.1385 C.3     
  24 C24            8.2815    -5.2587    -3.4901 C.3     
  25 C25           10.2187    -8.4784    -3.7510 C.3     
  26 O26            0.7563    -2.5400    -2.3901 O.2     
  27 N27           -0.5539    -3.4626    -0.7639 N.am    
  28 C28            0.4503    -2.7460     1.1592 C.ar    
  29 C29           -0.5978    -3.4898     0.6316 C.ar    
  30 C30            0.6150    -2.6254     2.5206 C.ar    
  31 C31           -0.2720    -3.2512     3.3822 C.ar    
  32 C32           -1.3212    -3.9958     2.8677 C.ar    
  33 C33           -1.4864    -4.1167     1.5022 C.ar    
  34 Cl34          -2.4334    -4.7805     3.9451 Cl      
  35 C35           -1.0184    -5.8562    -2.0403 C.ar    
  36 C36            0.1593    -6.0200    -2.7554 C.ar    
  37 C37           -1.6963    -6.9610    -1.5607 C.ar    
  38 C38           -1.2032    -8.2307    -1.7914 C.ar    
  39 C39           -0.0255    -8.3998    -2.5062 C.ar    
  40 C40            0.6560    -7.2934    -2.9886 C.ar    
  41 O41            0.4588    -9.6491    -2.7332 O.3     
  42 O42            0.8252    -4.9334    -3.2271 O.3     
  43 C43           -0.2955   -10.7428    -2.2072 C.3     
  44 C44            2.0308    -5.1767    -3.9547 C.3     
  45 C45            2.6343    -3.8438    -4.4021 C.3     
  46 C46           10.9770    -8.0765    -5.0176 C.3     
  47 C47           11.1903    -9.1155    -2.7555 C.3     
  48 O48           -1.1673    -0.6919     0.0099 O.3     
  49 C49           -2.3720     0.0766     0.0260 C.3     
  50 C50           -3.5777    -0.8652     0.0330 C.3     
  51 F51           -3.5507    -1.6659    -1.1140 F       
  52 F52           -3.5280    -1.6782     1.1704 F       
  53 S53           -1.6464    -4.2381    -1.7372 S.o2    
  54 O54           -2.8264    -4.4041    -0.9631 O.2     
  55 O55           -1.6248    -3.5590    -2.9853 O.2     
  56 H56            3.3442    -0.4925    -0.0322 H       
  57 H57            3.2375     1.9916    -0.0178 H       
  58 H58            1.0444     3.1046     0.0084 H       
  59 H59            4.9585    -1.8056    -2.9382 H       
  60 H60            6.3362    -1.7071    -1.8114 H       
  61 H61            5.3510    -4.1991    -3.2757 H       
  62 H62            6.8692    -3.3195    -3.5786 H       
  63 H63            7.6115    -3.8271    -1.2581 H       
  64 H64            5.0225    -5.4415    -1.1586 H       
  65 H65            6.3015    -5.4663     0.0799 H       
  66 H66            5.9767    -3.0764     0.5291 H       
  67 H67            4.4032    -3.9049     0.6527 H       
  68 H68            9.0503    -5.7641    -0.9868 H       
  69 H69            7.5799    -6.6455    -0.5064 H       
  70 H70            9.3749    -8.1970    -1.2666 H       
  71 H71            7.9463    -8.2756    -2.3262 H       
  72 H72            9.4756    -6.2627    -4.9766 H       
  73 H73            8.0053    -7.1442    -4.4962 H       
  74 H74            7.6806    -4.7112    -4.2164 H       
  75 H75            9.1092    -4.6327    -3.1568 H       
  76 H76            9.4384    -9.1952    -4.0067 H       
  77 H77            1.4346    -2.0442     2.9168 H       
  78 H78           -2.3064    -4.6986     1.1081 H       
  79 H79           -2.6128    -6.8314    -1.0043 H       
  80 H80           -1.7343    -9.0924    -1.4150 H       
  81 H81            1.5724    -7.4229    -3.5453 H       
  82 H82           -1.2968   -10.7341    -2.6379 H       
  83 H83            0.2001   -11.6804    -2.4588 H       
  84 H84           -0.3653   -10.6482    -1.1235 H       
  85 H85            2.7413    -5.7009    -3.3157 H       
  86 H86            1.8099    -5.7875    -4.8300 H       
  87 H87            3.5539    -4.0294    -4.9571 H       
  88 H88            1.9237    -3.3195    -5.0411 H       
  89 H89            2.8552    -3.2329    -3.5268 H       
  90 H90           11.7572    -7.3596    -4.7620 H       
  91 H91           11.4291    -8.9609    -5.4665 H       
  92 H92           10.2848    -7.6226    -5.7269 H       
  93 H93           10.6501    -9.4018    -1.8531 H       
  94 H94           11.6424    -9.9999    -3.2043 H       
  95 H95           11.9706    -8.3986    -2.4998 H       
  96 H96           -2.3931     0.7004     0.9196 H       
  97 H97           -2.4108     0.7099    -0.8602 H       
  98 H98           -4.4966    -0.2790     0.0452 H       
@<TRIPOS>BOND
   1    1   31 1
   2    2    3 ar
   3    2    7 ar
   4    3    4 ar
   5    3   48 1
   6    4    5 ar
   7    4    8 1
   8    5    6 ar
   9    5   56 1
  10    6    7 ar
  11    6   57 1
  12    7   58 1
  13    8    9 1
  14    8   10 1
  15    8   28 1
  16    9   26 2
  17    9   27 am
  18   10   11 1
  19   11   12 am
  20   11   13 2
  21   12   14 1
  22   12   18 1
  23   14   15 1
  24   14   59 1
  25   14   60 1
  26   15   16 1
  27   15   61 1
  28   15   62 1
  29   16   17 1
  30   16   19 1
  31   16   63 1
  32   17   18 1
  33   17   64 1
  34   17   65 1
  35   18   66 1
  36   18   67 1
  37   19   20 1
  38   19   24 1
  39   20   21 1
  40   20   68 1
  41   20   69 1
  42   21   22 1
  43   21   70 1
  44   21   71 1
  45   22   23 1
  46   22   25 1
  47   23   24 1
  48   23   72 1
  49   23   73 1
  50   24   74 1
  51   24   75 1
  52   25   46 1
  53   25   47 1
  54   25   76 1
  55   27   53 am
  56   27   29 1
  57   28   29 ar
  58   28   30 ar
  59   29   33 ar
  60   30   31 ar
  61   30   77 1
  62   31   32 ar
  63   32   33 ar
  64   32   34 1
  65   33   78 1
  66   35   36 ar
  67   35   37 ar
  68   35   53 1
  69   36   42 1
  70   36   40 ar
  71   37   38 ar
  72   37   79 1
  73   38   39 ar
  74   38   80 1
  75   39   40 ar
  76   39   41 1
  77   40   81 1
  78   41   43 1
  79   42   44 1
  80   43   82 1
  81   43   83 1
  82   43   84 1
  83   44   45 1
  84   44   85 1
  85   44   86 1
  86   45   87 1
  87   45   88 1
  88   45   89 1
  89   46   90 1
  90   46   91 1
  91   46   92 1
  92   47   93 1
  93   47   94 1
  94   47   95 1
  95   48   49 1
  96   49   50 1
  97   49   96 1
  98   49   97 1
  99   50   51 1
 100   50   52 1
 101   50   98 1
 102   53   54 2
 103   53   55 2

#	End of record

