#	Name: ASD01900481
#	Creating user name:	WinNT
#	Creation time:	15. 06. 2019 19:52

#	Modifying user name:	WinNT
#	Modification time:	15. 06. 2019 19:52

#	Program:	/corina/corina34_cracker 3.40 0067  02.08.2006

@<TRIPOS>MOLECULE
ASD01900481
  37   40    0    0    0
SMALL
NO_CHARGES


@<TRIPOS>ATOM
   1 C1             0.1587     1.5795     0.1850 C.ar    
   2 C2             0.3704     0.2110     0.0638 C.ar    
   3 C3             1.6422    -0.3066     0.2135 C.ar    
   4 C4             2.7092     0.5407     0.4851 C.ar    
   5 C5             2.4969     1.9078     0.6065 C.ar    
   6 C6             1.2253     2.4255     0.4564 C.ar    
   7 N7            -1.1301     2.1056     0.0274 N.pl3   
   8 N8             3.9977     0.0166     0.6369 N.pl3   
   9 C9            -1.3007     3.3826    -0.4955 C.ar    
  10 C10           -2.5709     3.9498    -0.5298 C.ar    
  11 C11           -2.7259     5.2208    -1.0523 C.ar    
  12 C12           -1.6014     5.8850    -1.5248 C.ar    
  13 C13           -0.3712     5.2623    -1.4599 C.ar    
  14 N14           -0.2520     4.0504    -0.9515 N.ar    
  15 C15            6.3430     0.3155     1.5993 C.ar    
  16 C16            6.8943     1.2706     2.4747 C.ar    
  17 C17            8.2411     1.1723     2.8224 C.ar    
  18 C18            8.9798     0.1347     2.2887 C.ar    
  19 C19            8.3705    -0.7718     1.4309 C.ar    
  20 N20            7.1003    -0.6651     1.1133 N.ar    
  21 N21            4.7148     1.7526     2.1498 N.2     
  22 N22            5.8891     2.1415     2.8025 N.pl3   
  23 C23            4.9367     0.6871     1.4267 C.2     
  24 Cl24          -0.9634    -0.8473    -0.2751 Cl      
  25 H25            1.8071    -1.3698     0.1198 H       
  26 H26            3.3263     2.5662     0.8184 H       
  27 H27            1.0608     3.4888     0.5502 H       
  28 H28           -1.9036     1.5790     0.2832 H       
  29 H29            4.2396    -0.8119     0.1941 H       
  30 H30           -3.4241     3.4046    -0.1539 H       
  31 H31           -3.6996     5.6864    -1.0922 H       
  32 H32           -1.6887     6.8785    -1.9392 H       
  33 H33            0.5058     5.7752    -1.8262 H       
  34 H34            8.6947     1.8889     3.4912 H       
  35 H35           10.0256     0.0290     2.5366 H       
  36 H36            8.9531    -1.5811     1.0162 H       
  37 H37            5.9775     2.9059     3.3931 H       
@<TRIPOS>BOND
   1    1    2 ar
   2    1    6 ar
   3    1    7 1
   4    2    3 ar
   5    2   24 1
   6    3    4 ar
   7    3   25 1
   8    4    5 ar
   9    4    8 1
  10    5    6 ar
  11    5   26 1
  12    6   27 1
  13    7    9 1
  14    7   28 1
  15    8   23 1
  16    8   29 1
  17    9   10 ar
  18    9   14 ar
  19   10   11 ar
  20   10   30 1
  21   11   12 ar
  22   11   31 1
  23   12   13 ar
  24   12   32 1
  25   13   14 ar
  26   13   33 1
  27   15   16 ar
  28   15   20 ar
  29   15   23 1
  30   16   17 ar
  31   16   22 1
  32   17   18 ar
  33   17   34 1
  34   18   19 ar
  35   18   35 1
  36   19   20 ar
  37   19   36 1
  38   21   22 1
  39   21   23 2
  40   22   37 1

#	End of record

