#	Name: ASD01940277
#	Creating user name:	WinNT
#	Creation time:	15. 06. 2019 20:12

#	Modifying user name:	WinNT
#	Modification time:	15. 06. 2019 20:12

#	Program:	/corina/corina34_cracker 3.40 0067  02.08.2006

@<TRIPOS>MOLECULE
ASD01940277
  41   42    0    0    0
SMALL
NO_CHARGES


@<TRIPOS>ATOM
   1 C1             0.4030     1.6501    -0.1843 C.3     
   2 C2             0.5135     0.1261    -0.2629 C.3     
   3 C3            -0.8827    -0.4789    -0.4230 C.3     
   4 S4             2.0583     2.3674     0.0054 S.o2    
   5 O5             2.5991     2.0436     1.2790 O.2     
   6 O6             2.8192     2.1864    -1.1810 O.2     
   7 N7             1.7952     4.0008     0.0767 N.am    
   8 C8             1.0120     4.5400     1.1060 C.ar    
   9 C9             0.1834     5.6326     0.8540 C.ar    
  10 C10           -0.5907     6.1625     1.8772 C.ar    
  11 C11           -0.5376     5.6044     3.1449 C.ar    
  12 C12            0.2861     4.5201     3.3927 C.ar    
  13 C13            1.0553     3.9844     2.3755 C.ar    
  14 N14            0.1324     6.1949    -0.4291 N.pl3   
  15 C15           -0.3746     7.4844    -0.6070 C.ar    
  16 C16            0.3784     8.5885    -0.2234 C.ar    
  17 C17           -0.1263     9.8620    -0.4014 C.ar    
  18 C18           -1.3790    10.0391    -0.9605 C.ar    
  19 C19           -2.1302     8.9432    -1.3430 C.ar    
  20 C20           -1.6298     7.6669    -1.1729 C.ar    
  21 C21           -1.9265    11.4299    -1.1528 C.3     
  22 F22           -1.5531    11.9080    -2.4134 F       
  23 F23           -3.3221    11.3985    -1.0605 F       
  24 F24           -1.4126    12.2744    -0.1628 F       
  25 Br25           2.0909     8.3470     0.5416 Br      
  26 F26           -1.2910     6.1202     4.1407 F       
  27 F27           -1.3947     7.2214     1.6378 F       
  28 Cl28          -0.7525    -2.2748    -0.5156 Cl      
  29 H29           -0.0545     2.0288    -1.0983 H       
  30 H30           -0.2129     1.9260     0.6716 H       
  31 H31            1.1294    -0.1499    -1.1189 H       
  32 H32            0.9710    -0.2526     0.6510 H       
  33 H33           -1.4985    -0.2029     0.4330 H       
  34 H34           -1.3402    -0.1001    -1.3370 H       
  35 H35            2.1832     4.5843    -0.5940 H       
  36 H36            0.3252     4.0885     4.3819 H       
  37 H37            1.6935     3.1355     2.5715 H       
  38 H38            0.4493     5.6886    -1.1934 H       
  39 H39            0.4577    10.7202    -0.1035 H       
  40 H40           -3.1081     9.0854    -1.7789 H       
  41 H41           -2.2157     6.8117    -1.4758 H       
@<TRIPOS>BOND
   1    1    2 1
   2    1    4 1
   3    1   29 1
   4    1   30 1
   5    2    3 1
   6    2   31 1
   7    2   32 1
   8    3   28 1
   9    3   33 1
  10    3   34 1
  11    4    5 2
  12    4    6 2
  13    4    7 am
  14    7    8 1
  15    7   35 1
  16    8    9 ar
  17    8   13 ar
  18    9   10 ar
  19    9   14 1
  20   10   11 ar
  21   10   27 1
  22   11   12 ar
  23   11   26 1
  24   12   13 ar
  25   12   36 1
  26   13   37 1
  27   14   15 1
  28   14   38 1
  29   15   16 ar
  30   15   20 ar
  31   16   17 ar
  32   16   25 1
  33   17   18 ar
  34   17   39 1
  35   18   19 ar
  36   18   21 1
  37   19   20 ar
  38   19   40 1
  39   20   41 1
  40   21   22 1
  41   21   23 1
  42   21   24 1

#	End of record

