#	Name: ASD03080111
#	Creating user name:	WinNT
#	Creation time:	15. 06. 2019 20:26

#	Modifying user name:	WinNT
#	Modification time:	15. 06. 2019 20:26

#	Program:	/corina/corina34_cracker 3.40 0067  02.08.2006

@<TRIPOS>MOLECULE
ASD03080111
  28   30    0    0    0
SMALL
NO_CHARGES


@<TRIPOS>ATOM
   1 N1             0.0175    -1.1399    -0.0042 N.1     
   2 C2             0.0021    -0.0041     0.0020 C.1     
   3 C3            -0.0173     1.4278     0.0099 C.ar    
   4 C4             1.1809     2.1449     0.0023 C.ar    
   5 C5             1.1589     3.5248     0.0094 C.ar    
   6 C6            -0.0464     4.2013     0.0241 C.ar    
   7 C7            -1.2443     3.4969     0.0318 C.ar    
   8 C8            -1.2338     2.1115     0.0193 C.ar    
   9 N9            -2.4640     4.1886     0.0471 N.pl3   
  10 N10           -3.6296     3.6423     0.0557 N.2     
  11 N11           -4.5266     4.5690     0.0699 N.2     
  12 C12           -3.8834     5.7455     0.0700 C.2     
  13 N13           -2.5938     5.4707     0.0604 N.2     
  14 C14           -4.5025     7.0945     0.0837 C.ar    
  15 C15           -5.8892     7.2272     0.0988 C.ar    
  16 C16           -6.4596     8.4840     0.1120 C.ar    
  17 C17           -5.6570     9.6105     0.1102 C.ar    
  18 C18           -4.2797     9.4845     0.0952 C.ar    
  19 C19           -3.6988     8.2325     0.0872 C.ar    
  20 H20            2.1246     1.6197    -0.0088 H       
  21 H21            2.0865     4.0778     0.0039 H       
  22 H22           -0.0571     5.2813     0.0300 H       
  23 H23           -2.1639     1.5626     0.0250 H       
  24 H24           -6.5167     6.3482     0.0999 H       
  25 H25           -7.5345     8.5880     0.1233 H       
  26 H26           -6.1074    10.5921     0.1201 H       
  27 H27           -3.6576    10.3674     0.0935 H       
  28 H28           -2.6232     8.1352     0.0755 H       
@<TRIPOS>BOND
   1    1    2 3
   2    2    3 1
   3    3    4 ar
   4    3    8 ar
   5    4    5 ar
   6    4   20 1
   7    5    6 ar
   8    5   21 1
   9    6    7 ar
  10    6   22 1
  11    7    8 ar
  12    7    9 1
  13    8   23 1
  14    9   10 1
  15    9   13 1
  16   10   11 2
  17   11   12 1
  18   12   13 2
  19   12   14 1
  20   14   15 ar
  21   14   19 ar
  22   15   16 ar
  23   15   24 1
  24   16   17 ar
  25   16   25 1
  26   17   18 ar
  27   17   26 1
  28   18   19 ar
  29   18   27 1
  30   19   28 1

#	End of record

