#	Name: ASD05570004
#	Creating user name:	WinNT
#	Creation time:	15. 06. 2019 21:01

#	Modifying user name:	WinNT
#	Modification time:	15. 06. 2019 21:01

#	Program:	/corina/corina34_cracker 3.40 0067  02.08.2006

@<TRIPOS>MOLECULE
ASD05570004
  48   52    0    0    0
SMALL
NO_CHARGES


@<TRIPOS>ATOM
   1 C1            -0.1051     1.4012     0.0126 C.3     
   2 O2            -0.0559    -0.0269     0.0034 O.3     
   3 C3             0.6258    -0.5923     1.1248 C.3     
   4 C4             0.0486    -1.9711     1.4702 C.3     
   5 O5            -0.8342    -1.9825     2.5961 O.3     
   6 P6            -1.2354    -3.4462     3.1956 P.3     
   7 O7            -1.6673    -3.3143     4.6051 O.2     
   8 O8            -2.4181    -4.0952     2.3169 O.3     
   9 O9             0.0955    -4.3716     3.1076 O.3     
  10 C10            1.0278    -4.2052     2.0124 C.3     
  11 C11            1.3311    -2.7229     1.9188 C.3     
  12 O12            2.2912    -2.3285     0.9421 O.3     
  13 C13            2.1012    -0.9030     0.7677 C.3     
  14 N14            2.3664    -0.5310    -0.6243 N.pl3   
  15 C15            1.9457    -1.2066    -1.7378 C.2     
  16 S16            0.9846    -2.6833    -1.7251 S.3     
  17 C17            0.6985    -2.8769    -3.4529 C.ar    
  18 C18            1.6293    -3.5406    -4.2425 C.ar    
  19 C19            1.4025    -3.6908    -5.5963 C.ar    
  20 C20            0.2492    -3.1810    -6.1668 C.ar    
  21 C21           -0.6798    -2.5195    -5.3827 C.ar    
  22 C22           -0.4610    -2.3713    -4.0274 C.ar    
  23 Cl23          -0.0324    -3.3712    -7.8692 Cl      
  24 N24            2.3654    -0.5891    -2.8147 N.2     
  25 C25            3.0743     0.5102    -2.4561 C.ar    
  26 C26            3.0791     0.5649    -1.0528 C.ar    
  27 N27            3.7157     1.5617    -0.4474 N.ar    
  28 C28            4.3348     2.4876    -1.1497 C.ar    
  29 N29            4.3576     2.4780    -2.4700 N.ar    
  30 C30            3.7447     1.5230    -3.1617 C.ar    
  31 N31            3.7741     1.5213    -4.5470 N.pl3   
  32 H32            0.9094     1.7997     0.0066 H       
  33 H33           -0.6386     1.7521    -0.8708 H       
  34 H34           -0.6237     1.7411     0.9091 H       
  35 H35            0.5681     0.0751     1.9847 H       
  36 H36           -0.4171    -2.4339     0.6001 H       
  37 H37           -2.7022    -4.9674     2.6228 H       
  38 H38            1.9434    -4.7610     2.2144 H       
  39 H39            0.5768    -4.5528     1.0829 H       
  40 H40            1.6476    -2.3531     2.8941 H       
  41 H41            2.7676    -0.3554     1.4342 H       
  42 H42            2.5296    -3.9383    -3.7979 H       
  43 H43            2.1259    -4.2062    -6.2106 H       
  44 H44           -1.5788    -2.1224    -5.8307 H       
  45 H45           -1.1865    -1.8552    -3.4160 H       
  46 H46            4.8424     3.2844    -0.6266 H       
  47 H47            4.2458     2.2226    -5.0230 H       
  48 H48            3.3230     0.8188    -5.0408 H       
@<TRIPOS>BOND
   1    1    2 1
   2    1   32 1
   3    1   33 1
   4    1   34 1
   5    2    3 1
   6    3    4 1
   7    3   13 1
   8    3   35 1
   9    4    5 1
  10    4   11 1
  11    4   36 1
  12    5    6 1
  13    6    7 2
  14    6    8 1
  15    6    9 1
  16    8   37 1
  17    9   10 1
  18   10   11 1
  19   10   38 1
  20   10   39 1
  21   11   12 1
  22   11   40 1
  23   12   13 1
  24   13   14 1
  25   13   41 1
  26   14   15 1
  27   14   26 1
  28   15   16 1
  29   15   24 2
  30   16   17 1
  31   17   18 ar
  32   17   22 ar
  33   18   19 ar
  34   18   42 1
  35   19   20 ar
  36   19   43 1
  37   20   21 ar
  38   20   23 1
  39   21   22 ar
  40   21   44 1
  41   22   45 1
  42   24   25 1
  43   25   26 ar
  44   25   30 ar
  45   26   27 ar
  46   27   28 ar
  47   28   29 ar
  48   28   46 1
  49   29   30 ar
  50   30   31 1
  51   31   47 1
  52   31   48 1

#	End of record

