#	Name: ASD05490049
#	Creating user name:	WinNT
#	Creation time:	15. 06. 2019 21:01

#	Modifying user name:	WinNT
#	Modification time:	15. 06. 2019 21:01

#	Program:	/corina/corina34_cracker 3.40 0067  02.08.2006

@<TRIPOS>MOLECULE
ASD05490049
  67   71    0    0    0
SMALL
NO_CHARGES


@<TRIPOS>ATOM
   1 O1             1.0592     1.6895    -0.1090 O.3     
   2 N2             3.5204     5.8027     0.1353 N.am    
   3 N3             3.3628     1.7454     0.0091 N.ar    
   4 C4             4.5187     2.4022     0.0865 C.ar    
   5 C5             2.2120     2.3977    -0.0302 C.ar    
   6 N6             2.1507     3.7185     0.0056 N.ar    
   7 C7             3.2606     4.4453     0.0828 C.ar    
   8 C8             4.4945     3.7952     0.1258 C.ar    
   9 N9             5.7224     1.7138     0.1270 N.pl3   
  10 C10            4.8531     5.9838     0.2024 C.2     
  11 N11            5.4721     4.7866     0.2037 N.am    
  12 O12            5.4125     7.0629     0.2600 O.2     
  13 C13            2.5135     6.8667     0.1150 C.3     
  14 C14            2.0962     7.1904     1.5264 C.ar    
  15 C15            1.0400     6.5107     2.1057 C.ar    
  16 C16            1.1737     0.2655    -0.1446 C.3     
  17 C17           -0.2215    -0.3563    -0.2333 C.3     
  18 C18           -0.0989    -1.8809    -0.2714 C.3     
  19 C19           -1.4941    -2.5026    -0.3600 C.3     
  20 C20            2.7745     8.1622     2.2397 C.ar    
  21 C21            2.3972     8.4621     3.5330 C.ar    
  22 C22            1.3305     7.7842     4.1197 C.ar    
  23 C23            0.6535     6.8032     3.3980 C.ar    
  24 C24            0.9201     8.1024     5.5098 C.ar    
  25 C25           -0.1465     7.4244     6.0962 C.ar    
  26 C26            1.6039     9.0760     6.2349 C.ar    
  27 C27            1.2193     9.3686     7.5280 C.ar    
  28 C28            0.1571     8.6978     8.1053 C.ar    
  29 C29           -0.5239     7.7247     7.3916 C.ar    
  30 F30           -1.5611     7.0723     7.9606 F       
  31 C31           -0.1327     8.2690    11.8239 C.3     
  32 C32            0.9928     7.6616    12.6816 C.3     
  33 N33            0.1707     7.9402    10.4141 N.3     
  34 C34            1.6421     7.7478    10.3508 C.3     
  35 C35            1.9592     7.0019    11.6713 C.3     
  36 C36           -0.2578     9.0219     9.5173 C.3     
  37 H37            5.7279     0.7442     0.0990 H       
  38 H38            6.5587     2.2021     0.1834 H       
  39 H39            6.4298     4.6403     0.2509 H       
  40 H40            2.9348     7.7566    -0.3526 H       
  41 H41            1.6450     6.5342    -0.4535 H       
  42 H42            0.5164     5.7500     1.5456 H       
  43 H43            1.7592    -0.0303    -1.0151 H       
  44 H44            1.6694    -0.0819     0.7618 H       
  45 H45           -0.8071    -0.0605     0.6372 H       
  46 H46           -0.7172    -0.0088    -1.1397 H       
  47 H47            0.4867    -2.1766    -1.1418 H       
  48 H48            0.3968    -2.2283     0.6351 H       
  49 H49           -2.0796    -2.2069     0.5105 H       
  50 H50           -1.9898    -2.1552    -1.2664 H       
  51 H51           -1.4067    -3.5888    -0.3871 H       
  52 H52            3.6012     8.6869     1.7840 H       
  53 H53            2.9279     9.2205     4.0894 H       
  54 H54           -0.1741     6.2750     3.8478 H       
  55 H55           -0.6774     6.6662     5.5397 H       
  56 H56            2.4341     9.6008     5.7859 H       
  57 H57            1.7496    10.1231     8.0902 H       
  58 H58           -1.0915     7.8355    12.1082 H       
  59 H59           -0.1575     9.3507    11.9558 H       
  60 H60            1.5062     8.4437    13.2410 H       
  61 H61            0.5876     6.9126    13.3620 H       
  62 H62            1.9136     7.1374     9.4895 H       
  63 H63            2.1549     8.7091    10.3193 H       
  64 H64            2.9958     7.1643    11.9667 H       
  65 H65            1.7472     5.9372    11.5735 H       
  66 H66            0.2084     9.9571     9.8274 H       
  67 H67           -1.3421     9.1238     9.5631 H       
@<TRIPOS>BOND
   1    1   16 1
   2    1    5 1
   3    2   13 1
   4    2    7 1
   5    2   10 am
   6    3    4 ar
   7    3    5 ar
   8    4    9 1
   9    4    8 ar
  10    5    6 ar
  11    6    7 ar
  12    7    8 ar
  13    8   11 1
  14    9   37 1
  15    9   38 1
  16   10   11 am
  17   10   12 2
  18   11   39 1
  19   13   14 1
  20   13   40 1
  21   13   41 1
  22   14   20 ar
  23   14   15 ar
  24   15   23 ar
  25   15   42 1
  26   16   17 1
  27   16   43 1
  28   16   44 1
  29   17   18 1
  30   17   45 1
  31   17   46 1
  32   18   19 1
  33   18   47 1
  34   18   48 1
  35   19   49 1
  36   19   50 1
  37   19   51 1
  38   20   21 ar
  39   20   52 1
  40   21   22 ar
  41   21   53 1
  42   22   23 ar
  43   22   24 1
  44   23   54 1
  45   24   25 ar
  46   24   26 ar
  47   25   29 ar
  48   25   55 1
  49   26   27 ar
  50   26   56 1
  51   27   28 ar
  52   27   57 1
  53   28   29 ar
  54   28   36 1
  55   29   30 1
  56   31   32 1
  57   31   33 1
  58   31   58 1
  59   31   59 1
  60   32   35 1
  61   32   60 1
  62   32   61 1
  63   33   34 1
  64   33   36 1
  65   34   35 1
  66   34   62 1
  67   34   63 1
  68   35   64 1
  69   35   65 1
  70   36   66 1
  71   36   67 1

#	End of record

