#	Name: ASD08170778
#	Creating user name:	WinNT
#	Creation time:	15. 06. 2019 21:17

#	Modifying user name:	WinNT
#	Modification time:	15. 06. 2019 21:17

#	Program:	/corina/corina34_cracker 3.40 0067  02.08.2006

@<TRIPOS>MOLECULE
ASD08170778
  68   71    0    0    0
SMALL
NO_CHARGES


@<TRIPOS>ATOM
   1 N1            -0.0159     1.3150     0.0224 N.ar    
   2 C2             0.0017    -0.0034     0.0124 C.ar    
   3 C3            -1.2931    -0.7743     0.0243 C.3     
   4 C4            -2.1384    -0.3331     1.2208 C.3     
   5 C5            -3.4530    -1.1158     1.2328 C.3     
   6 C6            -4.2984    -0.6746     2.4294 C.3     
   7 C7            -5.5932    -1.4455     2.4412 C.2     
   8 C8             1.2122    -0.6808    -0.0095 C.ar    
   9 C9             2.3785     0.0690    -0.0202 C.ar    
  10 C10            2.2616     1.4575    -0.0083 C.ar    
  11 N11            1.0600     2.0148     0.0126 N.ar    
  12 N12            3.4043     2.2567    -0.0179 N.am    
  13 N13           -5.8033    -2.5767     3.0361 N.2     
  14 N14           -6.9625    -3.0651     2.9277 N.2     
  15 C15           -7.8359    -2.3975     2.2358 C.2     
  16 S16           -7.0970    -0.9657     1.6538 S.3     
  17 N17           -9.1540    -2.7791     2.0098 N.am    
  18 C18           -9.6205    -3.9317     2.5297 C.2     
  19 O19           -8.8908    -4.6361     3.1947 O.2     
  20 C20          -11.0488    -4.3451     2.2847 C.3     
  21 C21          -11.3194    -5.6810     2.9797 C.3     
  22 C22          -11.3322    -5.5014     4.4875 C.2     
  23 C23            3.2889     3.5963    -0.1113 C.2     
  24 O24            2.1992     4.1007    -0.2812 O.2     
  25 C25            4.5141     4.4673    -0.0047 C.3     
  26 C26            4.1152     5.9141    -0.1410 C.ar    
  27 C27            3.7801     6.6461     0.9814 C.ar    
  28 C28            3.4134     7.9784     0.8553 C.ar    
  29 C29            3.3843     8.5717    -0.3982 C.ar    
  30 C30            3.7204     7.8351    -1.5178 C.ar    
  31 C31            4.0906     6.5094    -1.3889 C.ar    
  32 C32          -12.7424    -6.1894     2.6395 C.3     
  33 C33          -13.0543    -7.1253     3.8348 C.3     
  34 C34          -12.4133    -6.4066     5.0402 C.3     
  35 O35          -10.6132    -4.7721     5.1273 O.2     
  36 O36          -14.4657    -7.2520     4.0183 O.3     
  37 O37            3.0828     8.7006     1.9580 O.3     
  38 C38            2.7154    10.0662     1.7530 C.3     
  39 F39            1.5973    10.1275     0.9144 F       
  40 F40            2.4082    10.6563     2.9837 F       
  41 F41            3.7811    10.7519     1.1602 F       
  42 H42           -1.8401    -0.5802    -0.8983 H       
  43 H43           -1.0805    -1.8405     0.1031 H       
  44 H44           -1.5915    -0.5273     2.1434 H       
  45 H45           -2.3511     0.7331     1.1420 H       
  46 H46           -4.0000    -0.9216     0.3102 H       
  47 H47           -3.2404    -2.1820     1.3116 H       
  48 H48           -3.7514    -0.8687     3.3520 H       
  49 H49           -4.5110     0.3916     2.3505 H       
  50 H50            1.2451    -1.7603    -0.0176 H       
  51 H51            3.3472    -0.4082    -0.0369 H       
  52 H52            4.2821     1.8485     0.0427 H       
  53 H53           -9.7376    -2.2157     1.4779 H       
  54 H54          -11.7206    -3.5852     2.6839 H       
  55 H55          -11.2174    -4.4524     1.2132 H       
  56 H56          -10.5718    -6.4189     2.6887 H       
  57 H57            4.9880     4.3107     0.9643 H       
  58 H58            5.2148     4.2073    -0.7981 H       
  59 H59            3.8032     6.1818     1.9562 H       
  60 H60            3.0989     9.6084    -0.4989 H       
  61 H61            3.6980     8.2966    -2.4939 H       
  62 H62            4.3529     5.9353    -2.2653 H       
  63 H63          -13.4506    -5.3618     2.6001 H       
  64 H64          -12.7416    -6.7453     1.7019 H       
  65 H65          -12.5972    -8.1034     3.6848 H       
  66 H66          -11.9755    -7.1376     5.7200 H       
  67 H67          -13.1641    -5.8141     5.5629 H       
  68 H68          -14.7166    -7.8273     4.7540 H       
@<TRIPOS>BOND
   1    1    2 ar
   2    1   11 ar
   3    2    3 1
   4    2    8 ar
   5    3    4 1
   6    3   42 1
   7    3   43 1
   8    4    5 1
   9    4   44 1
  10    4   45 1
  11    5    6 1
  12    5   46 1
  13    5   47 1
  14    6    7 1
  15    6   48 1
  16    6   49 1
  17    7   13 2
  18    7   16 1
  19    8    9 ar
  20    8   50 1
  21    9   10 ar
  22    9   51 1
  23   10   11 ar
  24   10   12 1
  25   12   23 am
  26   12   52 1
  27   13   14 1
  28   14   15 2
  29   15   16 1
  30   15   17 1
  31   17   18 am
  32   17   53 1
  33   18   19 2
  34   18   20 1
  35   20   21 1
  36   20   54 1
  37   20   55 1
  38   21   32 1
  39   21   22 1
  40   21   56 1
  41   22   35 2
  42   22   34 1
  43   23   24 2
  44   23   25 1
  45   25   26 1
  46   25   57 1
  47   25   58 1
  48   26   27 ar
  49   26   31 ar
  50   27   28 ar
  51   27   59 1
  52   28   29 ar
  53   28   37 1
  54   29   30 ar
  55   29   60 1
  56   30   31 ar
  57   30   61 1
  58   31   62 1
  59   32   33 1
  60   32   63 1
  61   32   64 1
  62   33   34 1
  63   33   36 1
  64   33   65 1
  65   34   66 1
  66   34   67 1
  67   36   68 1
  68   37   38 1
  69   38   39 1
  70   38   40 1
  71   38   41 1

#	End of record

