#	Name: ASD04910078
#	Creating user name:	WinNT
#	Creation time:	15. 06. 2019 20:55

#	Modifying user name:	WinNT
#	Modification time:	15. 06. 2019 20:55

#	Program:	/corina/corina34_cracker 3.40 0067  02.08.2006

@<TRIPOS>MOLECULE
ASD04910078
  26   26    0    0    0
SMALL
NO_CHARGES


@<TRIPOS>ATOM
   1 C1            -0.0180     1.4754     0.0102 C.2     
   2 C2             0.0021    -0.0041     0.0020 C.ar    
   3 C3             1.2207    -0.6851    -0.0133 C.ar    
   4 C4             1.2405    -2.0626    -0.0209 C.ar    
   5 C5             0.0397    -2.7785    -0.0132 C.ar    
   6 C6            -1.1801    -2.0956     0.0021 C.ar    
   7 C7            -1.1976    -0.7181     0.0154 C.ar    
   8 O8             1.0253     2.0968     0.0035 O.2     
   9 O9            -1.1934     2.1329     0.0193 O.3     
  10 C10            0.0597    -4.2525    -0.0218 C.2     
  11 O11            1.1176    -4.8442    -0.0355 O.2     
  12 C12           -1.2350    -5.0236    -0.0136 C.3     
  13 C13           -0.9351    -6.5239    -0.0251 C.3     
  14 C14           -2.2495    -7.3069    -0.0167 C.3     
  15 H15            2.1482    -0.1319    -0.0195 H       
  16 H16            2.1833    -2.5893    -0.0331 H       
  17 H17           -2.1083    -2.6477     0.0080 H       
  18 H18           -2.1397    -0.1903     0.0317 H       
  19 H19           -1.1559     3.0992     0.0244 H       
  20 H20           -1.8014    -4.7732     0.8834 H       
  21 H21           -1.8187    -4.7630    -0.8965 H       
  22 H22           -0.3687    -6.7743    -0.9221 H       
  23 H23           -0.3514    -6.7845     0.8578 H       
  24 H24           -2.0359    -8.3757    -0.0249 H       
  25 H25           -2.8159    -7.0564     0.8802 H       
  26 H26           -2.8333    -7.0463    -0.8996 H       
@<TRIPOS>BOND
   1    1    2 1
   2    1    8 2
   3    1    9 1
   4    2    3 ar
   5    2    7 ar
   6    3    4 ar
   7    3   15 1
   8    4    5 ar
   9    4   16 1
  10    5    6 ar
  11    5   10 1
  12    6    7 ar
  13    6   17 1
  14    7   18 1
  15    9   19 1
  16   10   11 2
  17   10   12 1
  18   12   13 1
  19   12   20 1
  20   12   21 1
  21   13   14 1
  22   13   22 1
  23   13   23 1
  24   14   24 1
  25   14   25 1
  26   14   26 1

#	End of record

