#	Name: ASD00069056
#	Creating user name:	WinNT
#	Creation time:	15. 06. 2019 18:29

#	Modifying user name:	WinNT
#	Modification time:	15. 06. 2019 18:29

#	Program:	/corina/corina34_cracker 3.40 0067  02.08.2006

@<TRIPOS>MOLECULE
ASD00069056
  17   18    0    0    0
SMALL
NO_CHARGES


@<TRIPOS>ATOM
   1 C1            -0.0168     1.3853     0.0097 C.ar    
   2 C2             0.0021    -0.0041     0.0020 C.ar    
   3 C3             1.2007    -0.6843    -0.0131 C.ar    
   4 C4             2.3941     0.0296    -0.0207 C.ar    
   5 C5             2.3773     1.4378    -0.0130 C.ar    
   6 C6             1.1570     2.1049     0.0023 C.ar    
   7 C7             3.8230    -0.3185    -0.0368 C.2     
   8 N8             4.4822     0.8235    -0.0372 N.2     
   9 N9             3.6904     1.8338    -0.0239 N.pl3   
  10 C10            4.3993    -1.6661    -0.0493 C.2     
  11 O11            5.6039    -1.8106    -0.0621 O.2     
  12 Br12          -1.6255    -0.9667     0.0131 Br      
  13 H13           -0.9627     1.9065     0.0170 H       
  14 H14            1.2130    -1.7642    -0.0187 H       
  15 H15            1.1302     3.1846     0.0080 H       
  16 H16            3.9831     2.7586    -0.0223 H       
  17 H17            3.7517    -2.5304    -0.0471 H       
@<TRIPOS>BOND
   1    1    2 ar
   2    1    6 ar
   3    1   13 1
   4    2    3 ar
   5    2   12 1
   6    3    4 ar
   7    3   14 1
   8    4    5 ar
   9    4    7 1
  10    5    6 ar
  11    5    9 1
  12    6   15 1
  13    7    8 2
  14    7   10 1
  15    8    9 1
  16    9   16 1
  17   10   11 2
  18   10   17 1

#	End of record

