#	Name: ASD01900942
#	Creating user name:	WinNT
#	Creation time:	15. 06. 2019 19:52

#	Modifying user name:	WinNT
#	Modification time:	15. 06. 2019 19:52

#	Program:	/corina/corina34_cracker 3.40 0067  02.08.2006

@<TRIPOS>MOLECULE
ASD01900942
  43   45    0    0    0
SMALL
NO_CHARGES


@<TRIPOS>ATOM
   1 C1            -0.2856     1.1924    -0.6888 C.ar    
   2 C2            -0.3735    -0.1727    -0.9540 C.ar    
   3 C3             0.7927    -0.9033    -1.1162 C.ar    
   4 C4             2.0071    -0.2433    -1.0076 C.ar    
   5 C5             2.0198     1.1165    -0.7422 C.ar    
   6 N6             0.8977     1.7861    -0.5926 N.ar    
   7 C7            -1.5228     1.9888    -0.5189 C.2     
   8 O8            -2.6088     1.4513    -0.6109 O.2     
   9 N9            -1.4441     3.3095    -0.2623 N.am    
  10 S10           -2.6519     5.7336     0.2246 S.3     
  11 C11           -2.6042     4.0562    -0.1030 C.2     
  12 N12           -3.8087     3.5830    -0.1818 N.2     
  13 C13           -4.7990     4.4372    -0.0042 C.2     
  14 C14           -4.4131     5.6919     0.2362 C.2     
  15 C15           -6.2482     4.0287    -0.0682 C.3     
  16 S16           -5.4790     7.0667     0.5162 S.o2    
  17 O17           -6.6966     6.4820     0.9575 O.2     
  18 O18           -4.7286     7.9248     1.3646 O.2     
  19 C19           -5.6901     7.8168    -1.1219 C.3     
  20 C20           -6.3143     6.7948    -2.0742 C.3     
  21 C21           -6.5935     9.0180    -1.0118 C.ar    
  22 C22           -6.5095    10.0360    -1.9468 C.ar    
  23 C23           -7.3400    11.1388    -1.8443 C.ar    
  24 C24           -8.2520    11.2226    -0.8091 C.ar    
  25 C25           -8.3347    10.2061     0.1239 C.ar    
  26 C26           -7.5100     9.1013     0.0190 C.ar    
  27 F27           -5.6173     9.9532    -2.9579 F       
  28 H28           -1.3370    -0.6545    -1.0316 H       
  29 H29            0.7565    -1.9629    -1.3222 H       
  30 H30            2.9342    -0.7840    -1.1284 H       
  31 H31            2.9640     1.6337    -0.6570 H       
  32 H32           -0.5773     3.7386    -0.1889 H       
  33 H33           -6.6139     3.8280     0.9389 H       
  34 H34           -6.8331     4.8335    -0.5135 H       
  35 H35           -6.3457     3.1293    -0.6761 H       
  36 H36           -4.7189     8.1268    -1.5075 H       
  37 H37           -6.4411     7.2455    -3.0585 H       
  38 H38           -5.6609     5.9260    -2.1539 H       
  39 H39           -7.2855     6.4848    -1.6886 H       
  40 H40           -7.2750    11.9335    -2.5727 H       
  41 H41           -8.9000    12.0829    -0.7289 H       
  42 H42           -9.0471    10.2728     0.9328 H       
  43 H43           -7.5790     8.3052     0.7456 H       
@<TRIPOS>BOND
   1    1    2 ar
   2    1    6 ar
   3    1    7 1
   4    2    3 ar
   5    2   28 1
   6    3    4 ar
   7    3   29 1
   8    4    5 ar
   9    4   30 1
  10    5    6 ar
  11    5   31 1
  12    7    8 2
  13    7    9 am
  14    9   11 1
  15    9   32 1
  16   10   11 1
  17   10   14 1
  18   11   12 2
  19   12   13 1
  20   13   14 2
  21   13   15 1
  22   14   16 1
  23   15   33 1
  24   15   34 1
  25   15   35 1
  26   16   17 2
  27   16   18 2
  28   16   19 1
  29   19   20 1
  30   19   21 1
  31   19   36 1
  32   20   37 1
  33   20   38 1
  34   20   39 1
  35   21   22 ar
  36   21   26 ar
  37   22   23 ar
  38   22   27 1
  39   23   24 ar
  40   23   40 1
  41   24   25 ar
  42   24   41 1
  43   25   26 ar
  44   25   42 1
  45   26   43 1

#	End of record

