#	Name: ASD09116459
#	Creating user name:	WinNT
#	Creation time:	15. 06. 2019 21:21

#	Modifying user name:	WinNT
#	Modification time:	15. 06. 2019 21:21

#	Program:	/corina/corina34_cracker 3.40 0067  02.08.2006

@<TRIPOS>MOLECULE
ASD09116459
  70   76    0    0    0
SMALL
NO_CHARGES


@<TRIPOS>ATOM
   1 N1            -0.0329     1.4241     0.1733 N.2     
   2 N2            -0.0268     0.0280     0.3237 N.pl3   
   3 C3             1.2199     1.8111     0.1415 C.2     
   4 N4             2.0109     0.7386     0.2632 N.2     
   5 C5             1.2734    -0.3455     0.3742 C.2     
   6 N6             1.7433    -1.6372     0.5175 N.pl3   
   7 C7            -1.1410    -0.8091     0.4055 C.ar    
   8 N8             1.6572     3.1282     0.0023 N.pl3   
   9 C9             3.0226     3.4265     0.0967 C.ar    
  10 C10            3.5506     4.5178    -0.5760 C.ar    
  11 C11            3.8663     2.6330     0.8730 C.ar    
  12 C12            5.2070     2.9648     0.9378 C.ar    
  13 C13            5.6666     4.0714     0.2313 C.ar    
  14 N14            4.8359     4.8054    -0.4915 N.ar    
  15 N15           -1.0396    -2.0829     0.0563 N.ar    
  16 N16           -2.0367    -2.8929     0.1034 N.ar    
  17 C17           -3.2336    -2.4971     0.5061 C.ar    
  18 C18           -3.4302    -1.1749     0.9146 C.ar    
  19 C19           -2.3618    -0.3048     0.8612 C.ar    
  20 C20           -4.3968    -3.4143     0.5100 C.ar    
  21 C21           -5.5901    -2.9929    -0.0789 C.ar    
  22 C22           -5.6474    -1.6472    -0.7483 C.3     
  23 C23           -5.7492    -0.5198     0.2755 C.3     
  24 C24           -4.7740    -0.7459     1.4277 C.3     
  25 C25           -4.3149    -4.6749     1.0911 C.ar    
  26 C26           -5.4247    -5.4976     1.0985 C.ar    
  27 C27           -6.6115    -5.0678     0.5332 C.ar    
  28 C28           -6.6944    -3.8173    -0.0545 C.ar    
  29 N29            7.0154     4.4141     0.2899 N.3     
  30 C30            7.2913     5.6073    -0.5223 C.3     
  31 C31            7.8633     3.2888    -0.1276 C.3     
  32 C32            9.3354     3.6782     0.0264 C.3     
  33 N33            9.6113     4.8714    -0.7858 N.3     
  34 C34            8.7634     5.9967    -0.3683 C.3     
  35 C35           11.0338     5.2329    -0.7240 C.3     
  36 C36           11.3310     6.3140    -1.7651 C.3     
  37 C37           12.7392     6.9119    -1.7804 C.3     
  38 C38           12.3003     5.9597    -2.8946 C.3     
  39 H39            2.6981    -1.8059     0.5431 H       
  40 H40            1.1182    -2.3751     0.5924 H       
  41 H41            1.0159     3.8376    -0.1598 H       
  42 H42            2.9029     5.1394    -1.1763 H       
  43 H43            3.4816     1.7795     1.4114 H       
  44 H44            5.8889     2.3723     1.5298 H       
  45 H45           -2.4668     0.7299     1.1524 H       
  46 H46           -4.7459    -1.5069    -1.3448 H       
  47 H47           -6.5169    -1.6122    -1.4047 H       
  48 H48           -5.5172     0.4280    -0.2102 H       
  49 H49           -6.7655    -0.4819     0.6678 H       
  50 H50           -5.1699    -1.5194     2.0858 H       
  51 H51           -4.6635     0.1807     1.9909 H       
  52 H52           -3.3884    -5.0092     1.5340 H       
  53 H53           -5.3655    -6.4783     1.5470 H       
  54 H54           -7.4783    -5.7117     0.5499 H       
  55 H55           -7.6245    -3.4873    -0.4931 H       
  56 H56            7.0799     5.3912    -1.5696 H       
  57 H57            6.6604     6.4301    -0.1859 H       
  58 H58            7.6494     2.4212     0.4966 H       
  59 H59            7.6584     3.0463    -1.1703 H       
  60 H60            9.5468     3.8943     1.0737 H       
  61 H61            9.9663     2.8554    -0.3100 H       
  62 H62            8.9773     6.8643    -0.9925 H       
  63 H63            8.9683     6.2392     0.6744 H       
  64 H64           11.2696     5.6115     0.2705 H       
  65 H65           11.6418     4.3522    -0.9310 H       
  66 H66           10.4999     6.9774    -2.0042 H       
  67 H67           12.8346     7.9687    -2.0300 H       
  68 H68           13.4540     6.5351    -1.0488 H       
  69 H69           12.7263     4.9564    -2.8960 H       
  70 H70           12.1070     6.3899    -3.8772 H       
@<TRIPOS>BOND
   1    1    2 1
   2    1    3 2
   3    2    7 1
   4    2    5 1
   5    3    4 1
   6    3    8 1
   7    4    5 2
   8    5    6 1
   9    6   39 1
  10    6   40 1
  11    7   15 ar
  12    7   19 ar
  13    8    9 1
  14    8   41 1
  15    9   10 ar
  16    9   11 ar
  17   10   14 ar
  18   10   42 1
  19   11   12 ar
  20   11   43 1
  21   12   13 ar
  22   12   44 1
  23   13   14 ar
  24   13   29 1
  25   15   16 ar
  26   16   17 ar
  27   17   18 ar
  28   17   20 1
  29   18   19 ar
  30   18   24 1
  31   19   45 1
  32   20   21 ar
  33   20   25 ar
  34   21   22 1
  35   21   28 ar
  36   22   23 1
  37   22   46 1
  38   22   47 1
  39   23   24 1
  40   23   48 1
  41   23   49 1
  42   24   50 1
  43   24   51 1
  44   25   26 ar
  45   25   52 1
  46   26   27 ar
  47   26   53 1
  48   27   28 ar
  49   27   54 1
  50   28   55 1
  51   29   30 1
  52   29   31 1
  53   30   34 1
  54   30   56 1
  55   30   57 1
  56   31   32 1
  57   31   58 1
  58   31   59 1
  59   32   33 1
  60   32   60 1
  61   32   61 1
  62   33   34 1
  63   33   35 1
  64   34   62 1
  65   34   63 1
  66   35   36 1
  67   35   64 1
  68   35   65 1
  69   36   37 1
  70   36   38 1
  71   36   66 1
  72   37   38 1
  73   37   67 1
  74   37   68 1
  75   38   69 1
  76   38   70 1

#	End of record

