#	Name: ASD01150785
#	Creating user name:	WinNT
#	Creation time:	15. 06. 2019 19:05

#	Modifying user name:	WinNT
#	Modification time:	15. 06. 2019 19:05

#	Program:	/corina/corina34_cracker 3.40 0067  02.08.2006

@<TRIPOS>MOLECULE
ASD01150785
  54   58    0    0    0
SMALL
NO_CHARGES


@<TRIPOS>ATOM
   1 C1            -0.0312     1.2744    -0.4482 C.2     
   2 O2            -0.6131     0.8773     0.5394 O.2     
   3 N3             2.1307     4.2437     0.0016 N.ar    
   4 C4             1.0720     3.4880    -0.1268 C.ar    
   5 C5             1.1754     2.0965    -0.3075 C.ar    
   6 C6             2.4501     1.5034    -0.3512 C.ar    
   7 C7             3.5762     2.3513    -0.2088 C.ar    
   8 C8             4.8782     1.8361    -0.2410 C.ar    
   9 C9             5.9510     2.6920    -0.0986 C.ar    
  10 C10            5.7448     4.0644     0.0771 C.ar    
  11 C11            4.4880     4.5849     0.1112 C.ar    
  12 C12            3.3730     3.7422    -0.0310 C.ar    
  13 N13            7.2515     2.1847    -0.1298 N.3     
  14 C14            8.2393     3.2581     0.0389 C.3     
  15 C15            9.6404     2.6518     0.1456 C.3     
  16 C16            9.9421     1.8499    -1.1234 C.3     
  17 C17            8.8716     0.7697    -1.3018 C.3     
  18 C18            7.4928     1.4306    -1.3665 C.3     
  19 C19            2.6091     0.0463    -0.5386 C.ar    
  20 C20            3.2211    -0.4500    -1.6917 C.ar    
  21 C21            3.3667    -1.8112    -1.8599 C.ar    
  22 C22            2.9077    -2.6845    -0.8896 C.ar    
  23 C23            2.3000    -2.1997     0.2552 C.ar    
  24 C24            2.1534    -0.8406     0.4393 C.ar    
  25 C25           -0.2939     4.1231    -0.0800 C.3     
  26 C26           -0.5444     0.9179    -1.8195 C.3     
  27 C27           -1.3908    -0.3501    -1.9494 C.3     
  28 C28           -2.0516     1.0255    -2.0598 C.3     
  29 H29            5.0412     0.7770    -0.3758 H       
  30 H30            6.5955     4.7204     0.1877 H       
  31 H31            4.3476     5.6469     0.2478 H       
  32 H32            8.1979     3.9280    -0.8199 H       
  33 H33            8.0157     3.8179     0.9471 H       
  34 H34           10.3748     3.4497     0.2551 H       
  35 H35            9.6865     1.9924     1.0123 H       
  36 H36            9.9344     2.5163    -1.9859 H       
  37 H37           10.9217     1.3805    -1.0334 H       
  38 H38            9.0568     0.2230    -2.2264 H       
  39 H39            8.9057     0.0807    -0.4579 H       
  40 H40            6.7271     0.6631    -1.4792 H       
  41 H41            7.4549     2.1091    -2.2188 H       
  42 H42            3.5792     0.2305    -2.4501 H       
  43 H43            3.8398    -2.1964    -2.7512 H       
  44 H44            3.0240    -3.7495    -1.0266 H       
  45 H45            1.9434    -2.8869     1.0082 H       
  46 H46            1.6830    -0.4633     1.3352 H       
  47 H47           -0.6363     4.3235    -1.0952 H       
  48 H48           -0.9925     3.4465     0.4123 H       
  49 H49           -0.2406     5.0586     0.4769 H       
  50 H50            0.1169     1.1687    -2.6488 H       
  51 H51           -1.2866    -0.9332    -2.8644 H       
  52 H52           -1.5764    -0.9263    -1.0430 H       
  53 H53           -2.6719     1.3542    -1.2260 H       
  54 H54           -2.3821     1.3473    -3.0473 H       
@<TRIPOS>BOND
   1    1    2 2
   2    1    5 1
   3    1   26 1
   4    3    4 ar
   5    3   12 ar
   6    4    5 ar
   7    4   25 1
   8    5    6 ar
   9    6    7 ar
  10    6   19 1
  11    7    8 ar
  12    7   12 ar
  13    8    9 ar
  14    8   29 1
  15    9   10 ar
  16    9   13 1
  17   10   11 ar
  18   10   30 1
  19   11   12 ar
  20   11   31 1
  21   13   14 1
  22   13   18 1
  23   14   15 1
  24   14   32 1
  25   14   33 1
  26   15   16 1
  27   15   34 1
  28   15   35 1
  29   16   17 1
  30   16   36 1
  31   16   37 1
  32   17   18 1
  33   17   38 1
  34   17   39 1
  35   18   40 1
  36   18   41 1
  37   19   20 ar
  38   19   24 ar
  39   20   21 ar
  40   20   42 1
  41   21   22 ar
  42   21   43 1
  43   22   23 ar
  44   22   44 1
  45   23   24 ar
  46   23   45 1
  47   24   46 1
  48   25   47 1
  49   25   48 1
  50   25   49 1
  51   26   27 1
  52   26   28 1
  53   26   50 1
  54   27   28 1
  55   27   51 1
  56   27   52 1
  57   28   53 1
  58   28   54 1

#	End of record

