#	Name: ASD03430548
#	Creating user name:	WinNT
#	Creation time:	15. 06. 2019 20:41

#	Modifying user name:	WinNT
#	Modification time:	15. 06. 2019 20:41

#	Program:	/corina/corina34_cracker 3.40 0067  02.08.2006

@<TRIPOS>MOLECULE
ASD03430548
  47   51    0    0    0
SMALL
NO_CHARGES


@<TRIPOS>ATOM
   1 N1            -0.1134     1.7460    -0.1934 N.am    
   2 C2            -0.0268     0.4159    -0.3637 C.2     
   3 C3             1.4436     0.0773    -0.4865 C.3     
   4 C4             2.1400     1.4126    -0.3585 C.ar    
   5 C5             3.4656     1.7837    -0.3858 C.ar    
   6 C6             3.8125     3.1155    -0.2398 C.ar    
   7 C7             2.8253     4.0686    -0.0670 C.ar    
   8 C8             1.4966     3.6994    -0.0394 C.ar    
   9 C9             1.1393     2.3603    -0.1857 C.ar    
  10 O10           -0.9526    -0.3663    -0.4099 O.2     
  11 C11           -1.3784     2.4689    -0.0398 C.3     
  12 C12           -1.7894     2.4596     1.4100 C.ar    
  13 C13           -3.0137     1.9280     1.7696 C.ar    
  14 C14           -3.3821     1.9239     3.1060 C.ar    
  15 C15           -2.5013     2.4569     4.0350 C.ar    
  16 C16           -1.2943     2.9708     3.6010 C.ar    
  17 N17           -0.9748     2.9536     2.3215 N.ar    
  18 C18           -3.9366     1.3607     0.7219 C.3     
  19 F19           -5.1332     0.9570     1.3238 F       
  20 F20           -4.2059     2.3388    -0.2413 F       
  21 F21           -3.3273     0.2596     0.1108 F       
  22 O22            1.8452    -0.7998     0.5677 O.3     
  23 O23            2.6127    -2.4505    -5.3728 O.3     
  24 C24            2.7414    -3.7884    -4.8566 C.3     
  25 O25            3.0879    -3.5895    -3.4733 O.3     
  26 C26            2.5541    -2.3786    -3.1344 C.ar    
  27 C27            2.2621    -1.6788    -4.3029 C.ar    
  28 C28            2.2871    -1.8066    -1.9017 C.ar    
  29 C29            1.7324    -0.5422    -1.8296 C.ar    
  30 C30            1.4412     0.1563    -2.9914 C.ar    
  31 C31            1.7064    -0.4125    -4.2282 C.ar    
  32 O32            0.8949     1.3994    -2.9181 O.3     
  33 F33            1.5280    -4.4761    -4.9654 F       
  34 F34            3.7598    -4.4771    -5.5242 F       
  35 H35            4.2336     1.0365    -0.5205 H       
  36 H36            4.8515     3.4097    -0.2603 H       
  37 H37            3.0964     5.1078     0.0473 H       
  38 H38            0.7315     4.4496     0.0960 H       
  39 H39           -1.2515     3.4983    -0.3749 H       
  40 H40           -2.1490     1.9841    -0.6391 H       
  41 H41           -4.3326     1.5155     3.4162 H       
  42 H42           -2.7557     2.4705     5.0846 H       
  43 H43           -0.6028     3.3877     4.3182 H       
  44 H44            1.3844    -1.6500     0.5690 H       
  45 H45            2.5133    -2.3487    -0.9954 H       
  46 H46            1.4796     0.1320    -5.1329 H       
  47 H47            1.5458     2.1138    -2.8863 H       
@<TRIPOS>BOND
   1    1    2 am
   2    1    9 1
   3    1   11 1
   4    2    3 1
   5    2   10 2
   6    3    4 1
   7    3   22 1
   8    3   29 1
   9    4    5 ar
  10    4    9 ar
  11    5    6 ar
  12    5   35 1
  13    6    7 ar
  14    6   36 1
  15    7    8 ar
  16    7   37 1
  17    8    9 ar
  18    8   38 1
  19   11   12 1
  20   11   39 1
  21   11   40 1
  22   12   13 ar
  23   12   17 ar
  24   13   14 ar
  25   13   18 1
  26   14   15 ar
  27   14   41 1
  28   15   16 ar
  29   15   42 1
  30   16   17 ar
  31   16   43 1
  32   18   19 1
  33   18   20 1
  34   18   21 1
  35   22   44 1
  36   23   24 1
  37   23   27 1
  38   24   25 1
  39   24   33 1
  40   24   34 1
  41   25   26 1
  42   26   27 ar
  43   26   28 ar
  44   27   31 ar
  45   28   29 ar
  46   28   45 1
  47   29   30 ar
  48   30   31 ar
  49   30   32 1
  50   31   46 1
  51   32   47 1

#	End of record

