#	Name: ASD02120011
#	Creating user name:	WinNT
#	Creation time:	15. 06. 2019 20:18

#	Modifying user name:	WinNT
#	Modification time:	15. 06. 2019 20:18

#	Program:	/corina/corina34_cracker 3.40 0067  02.08.2006

@<TRIPOS>MOLECULE
ASD02120011
 313  317    0    0    0
SMALL
NO_CHARGES


@<TRIPOS>ATOM
   1 C1             0.4797    -1.1740     2.5048 C.3     
   2 C2             1.4737     2.8613     4.9940 C.3     
   3 C3             1.4804     2.3240     3.5676 C.3     
   4 C4             0.5071     1.1495     3.4354 C.3     
   5 C5             1.3292    -0.1395     3.2438 C.3     
   6 C6             1.0771    -2.5685     2.6966 C.3     
   7 C7            -0.0330    -3.5783     2.8236 C.2     
   8 C8             3.2509     3.3861     6.6212 C.2     
   9 C9             2.7246     3.7098     5.2475 C.3     
  10 C10            3.4445     4.3201     7.5138 C.2     
  11 C11            0.1535    -4.8302     2.4906 C.2     
  12 C12           -0.3431     1.3485     2.2019 C.2     
  13 N13           -0.3166     1.0107     4.6198 N.3     
  14 O14           -1.5520     1.2907     2.2717 O.2     
  15 N15            0.9973   -10.6705    -3.5989 N.3     
  16 C16            1.5232   -11.2673    -2.3774 C.3     
  17 C17            1.1154   -12.7278    -2.3370 C.2     
  18 O18            0.8520   -13.2547    -1.2768 O.2     
  19 C19            3.0504   -11.2001    -2.3737 C.3     
  20 C20            0.9289   -10.5683    -1.1580 C.3     
  21 C21            1.9202    -9.6290    -0.4805 C.3     
  22 C22            1.1954    -8.8656     0.6359 C.3     
  23 C23            1.7831    14.3896     2.5256 C.3     
  24 C24            2.1199    13.2258     3.4219 C.2     
  25 O25            2.8400    13.3898     4.3839 O.2     
  26 N26            1.3615     8.0386     8.3632 N.3     
  27 C27            1.6609     7.4756     9.6838 C.3     
  28 C28            0.4182     6.8172    10.2383 C.2     
  29 O29            0.5302     5.8892    11.0129 O.2     
  30 C30            2.7729     6.4332     9.5950 C.3     
  31 C31            2.0943     8.5990    10.6308 C.3     
  32 C32            3.6550     6.6399     8.3694 C.3     
  33 C33            3.1636     5.7688     7.2106 C.3     
  34 C34            1.4886    -5.2963     1.9673 C.3     
  35 C35            1.5607    -6.8234     2.0264 C.3     
  36 C36            1.6028    -7.3922     0.6063 C.3     
  37 C37           -0.8917     3.2530    -0.3390 C.3     
  38 C38           -0.4874     1.7815    -0.2106 C.3     
  39 C39            0.3754     1.3941    -1.3890 C.2     
  40 N40            0.2723     1.5871     1.0239 N.am    
  41 O41            1.5666     1.6187    -1.3581 O.2     
  42 C42           -1.8211     3.4180    -1.5137 C.2     
  43 N43           -2.3590     4.6240    -1.7833 N.am    
  44 O44           -2.0851     2.4654    -2.2165 O.2     
  45 C45            1.1950    -0.9926    -3.4002 C.3     
  46 C46            0.6560     0.4245    -3.6137 C.3     
  47 C47           -0.1665     0.4654    -4.8762 C.2     
  48 N48           -0.1769     0.8075    -2.4695 N.am    
  49 O49           -1.3545     0.7106    -4.8163 O.2     
  50 C50            0.0317    -1.9418    -3.1060 C.3     
  51 C51           -0.7928    -2.1477    -4.3784 C.3     
  52 C52            0.5801    -3.2885    -2.6302 C.3     
  53 C53            0.1703     1.2683    -8.2764 C.3     
  54 C54           -0.3937     0.2435    -7.2970 C.3     
  55 C55           -0.4225    -1.1345    -7.8940 C.2     
  56 N56            0.4129     0.2361    -6.0713 N.am    
  57 O57           -1.0412    -2.0194    -7.3203 O.2     
  58 C58            0.0640     2.6471    -7.6775 C.2     
  59 C59           -0.9274     3.5299    -7.8767 C.2     
  60 N60           -0.6818     4.6748    -7.1687 N.pl3   
  61 C61            0.5038     4.5533    -6.4791 C.ar    
  62 C62            1.0197     3.2757    -6.7625 C.ar    
  63 C63            1.2072     5.3989    -5.6272 C.ar    
  64 C64            2.3990     4.9798    -5.0780 C.ar    
  65 C65            2.9071     3.7202    -5.3658 C.ar    
  66 C66            2.2257     2.8684    -6.1886 C.ar    
  67 C67            0.4441    -2.9551   -10.9807 C.3     
  68 C68            0.0687    -2.8427    -9.5029 C.3     
  69 C69            0.9960    -3.6961    -8.6782 C.2     
  70 N70            0.2260    -1.4281    -9.0584 N.am    
  71 O71            2.1962    -3.5501    -8.7756 O.2     
  72 N72           -1.1268    -1.4964   -14.1064 N.pl3   
  73 C73           -0.9899    -1.4494   -15.4736 C.2     
  74 N74           -0.0129    -2.0887   -16.0531 N.2     
  75 N75           -1.8834    -0.7282   -16.2296 N.pl3   
  76 C76           -0.5503    -2.1524   -11.8220 C.3     
  77 C77           -0.1746    -2.2649   -13.3009 C.3     
  78 C78            1.6868    -4.4579    -5.7201 C.3     
  79 C79            1.3772    -5.3527    -6.9248 C.3     
  80 C80            0.6851    -6.6060    -6.4571 C.2     
  81 N81            0.4946    -4.6237    -7.8402 N.am    
  82 O82           -0.3834    -6.9112    -6.9382 O.2     
  83 C83            3.0545    -4.8319    -5.1452 C.3     
  84 C84            4.0045    -5.1992    -6.2868 C.3     
  85 C85            3.6245    -3.6422    -4.3701 C.3     
  86 C86           -0.7377    -8.0899    -4.1652 C.3     
  87 C87            0.5281    -8.6283    -4.8404 C.3     
  88 C88            1.3077    -7.4796    -5.4301 C.2     
  89 N89            1.3468    -9.3226    -3.8539 N.3     
  90 O90            2.4452    -7.2894    -5.0685 O.2     
  91 C91           -1.5944    -9.2610    -3.6800 C.3     
  92 C92           -2.7948    -8.7249    -2.8973 C.3     
  93 C93           -2.0887   -10.0646    -4.8845 C.3     
  94 C94           -3.0690     7.5653    10.7354 C.3     
  95 C95           -2.0088     6.5433    10.3220 C.3     
  96 C96           -2.5187     5.7086     9.1716 C.2     
  97 N97           -0.8029     7.2576     9.8852 N.am    
  98 O98           -1.7493     5.3923     8.2841 O.2     
  99 C99           -2.5816     8.3376    11.9629 C.3     
 100 C100          -3.6261     9.3445    12.3703 C.2     
 101 O101          -4.6588     9.4355    11.7408 O.2     
 102 N102          -3.4128    10.1439    13.4342 N.am    
 103 C103          -4.1982     5.7140     6.7676 C.3     
 104 C104          -4.2866     4.6896     7.8932 C.3     
 105 C105          -3.4616     3.4599     7.6434 C.2     
 106 N106          -3.8363     5.3120     9.1798 N.am    
 107 O107          -3.2605     2.7283     8.6020 O.2     
 108 C108          -4.9966     6.9619     7.1499 C.3     
 109 O109          -2.8309     6.0702     6.5539 O.3     
 110 C110          -0.8450     2.1031     7.2771 C.3     
 111 C111          -1.9195     1.9497     6.1974 C.3     
 112 C112          -2.9301     3.0702     6.3215 C.2     
 113 N113          -1.2968     2.0004     4.8781 N.3     
 114 O114          -3.2963     3.5999     5.2955 O.2     
 115 C115          -1.2969     1.4113     8.5374 C.ar    
 116 C116          -1.8770     0.1584     8.4681 C.ar    
 117 C117          -2.2915    -0.4762     9.6241 C.ar    
 118 C118          -2.1256     0.1419    10.8494 C.ar    
 119 C119          -1.5447     1.3944    10.9187 C.ar    
 120 C120          -1.1262     2.0271     9.7631 C.ar    
 121 C121           3.4634    10.6581     4.0369 C.3     
 122 C122           1.9484    10.8714     4.0256 C.3     
 123 C123           1.4714    11.1609     5.4255 C.2     
 124 N124           1.6210    12.0027     3.1544 N.am    
 125 O125           1.2141    12.2946     5.7535 O.2     
 126 C126           3.9380    10.2959     2.6282 C.3     
 127 C127           5.4085     9.9680     2.6623 C.2     
 128 O128           5.9966     9.9290     3.7222 O.2     
 129 N129           6.0699     9.7181     1.5149 N.am    
 130 C130           2.1979    10.8183     8.5904 C.3     
 131 C131           0.9525    10.3527     7.8334 C.3     
 132 C132           1.3176    10.0515     6.4027 C.2     
 133 N133           0.4184     9.1403     8.4681 N.3     
 134 O134           1.4852     8.9085     6.0499 O.2     
 135 O135           3.2418     9.8562     8.4275 O.3     
 136 C136          -0.8744   -14.9544    -3.4547 C.3     
 137 C137           0.6520   -14.8505    -3.4400 C.3     
 138 C138           1.2156   -15.5629    -4.6425 C.2     
 139 N139           1.0459   -13.4399    -3.4791 N.am    
 140 O140           1.8807   -14.9525    -5.4524 O.2     
 141 C141          -1.4397   -14.3406    -2.1722 C.3     
 142 C142          -2.9431   -14.4429    -2.1867 C.2     
 143 O143          -3.5070   -14.9562    -3.1298 O.2     
 144 N144          -3.6611   -13.9640    -1.1515 N.am    
 145 C145           1.6783   -19.0608    -5.6729 C.3     
 146 C146           1.5283   -17.5709    -5.9868 C.3     
 147 C147           0.5955   -17.3956    -7.1574 C.2     
 148 N148           0.9804   -16.8783    -4.8178 N.am    
 149 O149          -0.4263   -16.7551    -7.0280 O.2     
 150 C150           2.7039   -19.2440    -4.5841 C.2     
 151 N151           3.0030   -20.4814    -4.1414 N.am    
 152 O152           3.2601   -18.2781    -4.1061 O.2     
 153 N153           0.8968   -17.9504    -8.3481 N.am    
 154 H154          -0.5376    -1.1581     2.8941 H       
 155 H155           0.4634    -0.9368     1.4406 H       
 156 H156           0.5941     3.4860     5.1448 H       
 157 H157           1.4655     2.0272     5.6955 H       
 158 H158           1.1830     3.1170     2.8821 H       
 159 H159           2.4871     1.9874     3.3131 H       
 160 H160           1.6168    -0.5276     4.2196 H       
 161 H161           2.2193     0.0881     2.6596 H       
 162 H162           1.6987    -2.8153     1.8361 H       
 163 H163           1.6879    -2.5803     3.5993 H       
 164 H164          -1.0016    -3.2627     3.1931 H       
 165 H165           3.4679     2.3544     6.8769 H       
 166 H166           3.4784     3.4894     4.4950 H       
 167 H167           2.4542     4.7645     5.1962 H       
 168 H168           3.8010     4.0405     8.4982 H       
 169 H169          -0.6607    -5.5365     2.5918 H       
 170 H170          -0.3801     0.1323     5.0413 H       
 171 H171           0.6778   -11.2540    -4.3060 H       
 172 H172           3.3684   -10.1590    -2.4281 H       
 173 H173           3.4315   -11.6489    -1.4564 H       
 174 H174           3.4402   -11.7446    -3.2337 H       
 175 H175           0.0519    -9.9909    -1.4765 H       
 176 H176           0.5950   -11.3199    -0.4379 H       
 177 H177           2.7332   -10.1952    -0.0262 H       
 178 H178           2.3153    -8.9108    -1.1968 H       
 179 H179           0.1190    -8.9482     0.4810 H       
 180 H180           1.4624    -9.3022     1.5971 H       
 181 H181           2.5243    14.4615     1.7296 H       
 182 H182           0.7954    14.2387     2.0900 H       
 183 H183           1.7861    15.3103     3.1091 H       
 184 H184           2.2062     8.3291     7.8940 H       
 185 H185           3.3927     6.5004    10.4970 H       
 186 H186           2.3288     5.4361     9.5629 H       
 187 H187           1.2899     9.3290    10.7207 H       
 188 H188           2.3169     8.1809    11.6126 H       
 189 H189           2.9844     9.0864    10.2331 H       
 190 H190           3.6814     7.6829     8.0728 H       
 191 H191           4.6798     6.3327     8.6210 H       
 192 H192           3.6827     6.0610     6.2969 H       
 193 H193           2.0915     5.9070     7.0766 H       
 194 H194           1.6093    -4.9667     0.9351 H       
 195 H195           2.2872    -4.8743     2.5791 H       
 196 H196           2.4582    -7.1260     2.5675 H       
 197 H197           0.6825    -7.2107     2.5438 H       
 198 H198           2.6110    -7.2962     0.2076 H       
 199 H199           0.9079    -6.8380    -0.0251 H       
 200 H200          -1.3978     3.5716     0.5723 H       
 201 H201          -0.0010     3.8625    -0.4920 H       
 202 H202          -1.3813     1.1579    -0.1960 H       
 203 H203           1.2426     1.6305     1.0026 H       
 204 H204          -2.1478     5.3858    -1.2212 H       
 205 H205          -2.9572     4.7301    -2.5395 H       
 206 H206           1.7150    -1.3228    -4.2994 H       
 207 H207           1.8876    -0.9949    -2.5585 H       
 208 H208           1.4914     1.1192    -3.7000 H       
 209 H209          -1.1335     0.6389    -2.4922 H       
 210 H210          -0.6005    -1.5119    -2.3291 H       
 211 H211          -1.4970    -2.9657    -4.2266 H       
 212 H212          -1.3411    -1.2340    -4.6078 H       
 213 H213          -0.1275    -2.3900    -5.2071 H       
 214 H214           1.1920    -3.1379    -1.7409 H       
 215 H215          -0.2490    -3.9548    -2.3921 H       
 216 H216           1.1880    -3.7323    -3.4186 H       
 217 H217           1.2167     1.0398    -8.4788 H       
 218 H218          -0.3962     1.2317    -9.2069 H       
 219 H219          -1.4182     0.5367    -7.0368 H       
 220 H220           1.3667     0.0720    -6.1288 H       
 221 H221          -1.7907     3.3618    -8.5035 H       
 222 H222          -1.2570     5.4557    -7.1549 H       
 223 H223           0.8204     6.3807    -5.3975 H       
 224 H224           2.9437     5.6378    -4.4172 H       
 225 H225           3.8430     3.4072    -4.9272 H       
 226 H226           2.6260     1.8892    -6.4063 H       
 227 H227           1.4490    -2.5606   -11.1313 H       
 228 H228           0.4153    -4.0016   -11.2843 H       
 229 H229          -0.9608    -3.1611    -9.3545 H       
 230 H230           0.7586    -0.8080    -9.5771 H       
 231 H231          -1.8538    -1.0206   -13.6752 H       
 232 H232           0.0837    -2.0556   -17.0177 H       
 233 H233          -2.6105    -0.2524   -15.7984 H       
 234 H234          -1.7868    -0.6951   -17.1942 H       
 235 H235          -1.5552    -2.5469   -11.6714 H       
 236 H236          -0.5215    -1.1060   -11.5184 H       
 237 H237          -0.2034    -3.3114   -13.6045 H       
 238 H238           0.8303    -1.8704   -13.4515 H       
 239 H239           1.6983    -3.4147    -6.0358 H       
 240 H240           0.9212    -4.5982    -4.9571 H       
 241 H241           2.3015    -5.6125    -7.4366 H       
 242 H242          -0.4565    -4.8140    -7.8451 H       
 243 H243           2.9459    -5.6841    -4.4744 H       
 244 H244           5.0125    -5.3296    -5.8930 H       
 245 H245           3.6728    -6.1280    -6.7509 H       
 246 H246           4.0051    -4.4017    -7.0299 H       
 247 H247           2.9867    -3.4281    -3.5125 H       
 248 H248           4.6300    -3.8819    -4.0244 H       
 249 H249           3.6628    -2.7690    -5.0214 H       
 250 H250          -0.4592    -7.4668    -3.3153 H       
 251 H251          -1.3063    -7.4956    -4.8805 H       
 252 H252           0.2426    -9.3159    -5.6383 H       
 253 H253           1.8753    -8.7973    -3.2326 H       
 254 H254          -0.9975    -9.9047    -3.0340 H       
 255 H255          -3.3917    -8.0812    -3.5434 H       
 256 H256          -3.4051    -9.5592    -2.5517 H       
 257 H257          -2.4426    -8.1523    -2.0392 H       
 258 H258          -1.2336   -10.4466    -5.4421 H       
 259 H259          -2.6991   -10.8990    -4.5389 H       
 260 H260          -2.6856    -9.4209    -5.5306 H       
 261 H261          -3.2431     8.2606     9.9142 H       
 262 H262          -3.9976     7.0481    10.9767 H       
 263 H263          -1.7683     5.9001    11.1645 H       
 264 H264          -0.9039     8.0574     9.3438 H       
 265 H265          -2.4074     7.6422    12.7841 H       
 266 H266          -1.6529     8.8548    11.7217 H       
 267 H267          -2.5869    10.0712    13.9377 H       
 268 H268          -4.0852    10.7921    13.6964 H       
 269 H269          -4.6093     5.2857     5.8534 H       
 270 H270          -5.3376     4.3856     8.0125 H       
 271 H271          -4.4335     5.4088     9.9452 H       
 272 H272          -4.9335     7.6943     6.3452 H       
 273 H273          -6.0395     6.6902     7.3130 H       
 274 H274          -4.5856     7.3902     8.0641 H       
 275 H275          -2.2645     5.3261     6.3076 H       
 276 H276           0.0856     1.6542     6.9299 H       
 277 H277          -0.6837     3.1615     7.4815 H       
 278 H278          -2.4302     0.9962     6.3287 H       
 279 H279          -1.3231     2.8355     4.3821 H       
 280 H280          -2.0066    -0.3245     7.5108 H       
 281 H281          -2.7454    -1.4547     9.5700 H       
 282 H282          -2.4501    -0.3535    11.7525 H       
 283 H283          -1.4154     1.8774    11.8760 H       
 284 H284          -0.6689     3.0040     9.8176 H       
 285 H285           3.9568    11.5740     4.3622 H       
 286 H286           3.7113     9.8484     4.7232 H       
 287 H287           1.4577     9.9721     3.6533 H       
 288 H288           1.0450    11.8715     2.3849 H       
 289 H289           3.3810     9.4308     2.2684 H       
 290 H290           3.7694    11.1402     1.9597 H       
 291 H291           5.5862     9.6777     0.6751 H       
 292 H292           7.0298     9.5787     1.5289 H       
 293 H293           2.5251    11.7799     8.1949 H       
 294 H294           1.9617    10.9224     9.6494 H       
 295 H295           0.1974    11.1384     7.8580 H       
 296 H296          -0.4758     8.8896     8.0737 H       
 297 H297           4.0637    10.0868     8.8818 H       
 298 H298          -1.2669   -14.4173    -4.3182 H       
 299 H299          -1.1666   -16.0027    -3.5152 H       
 300 H300           1.0388   -15.3106    -2.5307 H       
 301 H301           1.2565   -13.0185    -4.3270 H       
 302 H302          -1.0472   -14.8776    -1.3087 H       
 303 H303          -1.1474   -13.2922    -2.1117 H       
 304 H304          -3.2102   -13.5535    -0.3972 H       
 305 H305          -4.6289   -14.0299    -1.1608 H       
 306 H306           0.7201   -19.4604    -5.3406 H       
 307 H307           2.0014   -19.5902    -6.5693 H       
 308 H308           2.5037   -17.1516    -6.2335 H       
 309 H309           0.4484   -17.3665    -4.1701 H       
 310 H310           2.5581   -21.2540    -4.5236 H       
 311 H311           3.6631   -20.5993    -3.4405 H       
 312 H312           1.7140   -18.4626    -8.4516 H       
 313 H313           0.2964   -17.8376    -9.1016 H       
@<TRIPOS>BOND
   1    1    6 1
   2    1    5 1
   3    1  154 1
   4    1  155 1
   5    2    3 1
   6    2    9 1
   7    2  156 1
   8    2  157 1
   9    3    4 1
  10    3  158 1
  11    3  159 1
  12    4    5 1
  13    4   12 1
  14    4   13 1
  15    5  160 1
  16    5  161 1
  17    6    7 1
  18    6  162 1
  19    6  163 1
  20    7   11 2
  21    7  164 1
  22    8    9 1
  23    8   10 2
  24    8  165 1
  25    9  166 1
  26    9  167 1
  27   10   33 1
  28   10  168 1
  29   11   34 1
  30   11  169 1
  31   12   14 2
  32   12   40 am
  33   13  113 1
  34   13  170 1
  35   15   16 1
  36   15   89 1
  37   15  171 1
  38   16   17 1
  39   16   19 1
  40   16   20 1
  41   17   18 2
  42   17  139 am
  43   19  172 1
  44   19  173 1
  45   19  174 1
  46   20   21 1
  47   20  175 1
  48   20  176 1
  49   21   22 1
  50   21  177 1
  51   21  178 1
  52   22   36 1
  53   22  179 1
  54   22  180 1
  55   23   24 1
  56   23  181 1
  57   23  182 1
  58   23  183 1
  59   24   25 2
  60   24  124 am
  61   26   27 1
  62   26  133 1
  63   26  184 1
  64   27   28 1
  65   27   30 1
  66   27   31 1
  67   28   29 2
  68   28   97 am
  69   30   32 1
  70   30  185 1
  71   30  186 1
  72   31  187 1
  73   31  188 1
  74   31  189 1
  75   32   33 1
  76   32  190 1
  77   32  191 1
  78   33  192 1
  79   33  193 1
  80   34   35 1
  81   34  194 1
  82   34  195 1
  83   35   36 1
  84   35  196 1
  85   35  197 1
  86   36  198 1
  87   36  199 1
  88   37   42 1
  89   37   38 1
  90   37  200 1
  91   37  201 1
  92   38   40 1
  93   38   39 1
  94   38  202 1
  95   39   41 2
  96   39   48 am
  97   40  203 1
  98   42   43 am
  99   42   44 2
 100   43  204 1
 101   43  205 1
 102   45   46 1
 103   45   50 1
 104   45  206 1
 105   45  207 1
 106   46   48 1
 107   46   47 1
 108   46  208 1
 109   47   49 2
 110   47   56 am
 111   48  209 1
 112   50   51 1
 113   50   52 1
 114   50  210 1
 115   51  211 1
 116   51  212 1
 117   51  213 1
 118   52  214 1
 119   52  215 1
 120   52  216 1
 121   53   58 1
 122   53   54 1
 123   53  217 1
 124   53  218 1
 125   54   55 1
 126   54   56 1
 127   54  219 1
 128   55   57 2
 129   55   70 am
 130   56  220 1
 131   58   59 2
 132   58   62 1
 133   59   60 1
 134   59  221 1
 135   60   61 1
 136   60  222 1
 137   61   62 ar
 138   61   63 ar
 139   62   66 ar
 140   63   64 ar
 141   63  223 1
 142   64   65 ar
 143   64  224 1
 144   65   66 ar
 145   65  225 1
 146   66  226 1
 147   67   68 1
 148   67   76 1
 149   67  227 1
 150   67  228 1
 151   68   70 1
 152   68   69 1
 153   68  229 1
 154   69   71 2
 155   69   81 am
 156   70  230 1
 157   72   77 1
 158   72   73 1
 159   72  231 1
 160   73   74 2
 161   73   75 1
 162   74  232 1
 163   75  233 1
 164   75  234 1
 165   76   77 1
 166   76  235 1
 167   76  236 1
 168   77  237 1
 169   77  238 1
 170   78   83 1
 171   78   79 1
 172   78  239 1
 173   78  240 1
 174   79   81 1
 175   79   80 1
 176   79  241 1
 177   80   82 2
 178   80   88 1
 179   81  242 1
 180   83   84 1
 181   83   85 1
 182   83  243 1
 183   84  244 1
 184   84  245 1
 185   84  246 1
 186   85  247 1
 187   85  248 1
 188   85  249 1
 189   86   91 1
 190   86   87 1
 191   86  250 1
 192   86  251 1
 193   87   89 1
 194   87   88 1
 195   87  252 1
 196   88   90 2
 197   89  253 1
 198   91   92 1
 199   91   93 1
 200   91  254 1
 201   92  255 1
 202   92  256 1
 203   92  257 1
 204   93  258 1
 205   93  259 1
 206   93  260 1
 207   94   99 1
 208   94   95 1
 209   94  261 1
 210   94  262 1
 211   95   97 1
 212   95   96 1
 213   95  263 1
 214   96   98 2
 215   96  106 am
 216   97  264 1
 217   99  100 1
 218   99  265 1
 219   99  266 1
 220  100  101 2
 221  100  102 am
 222  102  267 1
 223  102  268 1
 224  103  108 1
 225  103  109 1
 226  103  104 1
 227  103  269 1
 228  104  106 1
 229  104  105 1
 230  104  270 1
 231  105  107 2
 232  105  112 1
 233  106  271 1
 234  108  272 1
 235  108  273 1
 236  108  274 1
 237  109  275 1
 238  110  115 1
 239  110  111 1
 240  110  276 1
 241  110  277 1
 242  111  112 1
 243  111  113 1
 244  111  278 1
 245  112  114 2
 246  113  279 1
 247  115  116 ar
 248  115  120 ar
 249  116  117 ar
 250  116  280 1
 251  117  118 ar
 252  117  281 1
 253  118  119 ar
 254  118  282 1
 255  119  120 ar
 256  119  283 1
 257  120  284 1
 258  121  126 1
 259  121  122 1
 260  121  285 1
 261  121  286 1
 262  122  124 1
 263  122  123 1
 264  122  287 1
 265  123  125 2
 266  123  132 1
 267  124  288 1
 268  126  127 1
 269  126  289 1
 270  126  290 1
 271  127  128 2
 272  127  129 am
 273  129  291 1
 274  129  292 1
 275  130  135 1
 276  130  131 1
 277  130  293 1
 278  130  294 1
 279  131  133 1
 280  131  132 1
 281  131  295 1
 282  132  134 2
 283  133  296 1
 284  135  297 1
 285  136  141 1
 286  136  137 1
 287  136  298 1
 288  136  299 1
 289  137  139 1
 290  137  138 1
 291  137  300 1
 292  138  140 2
 293  138  148 am
 294  139  301 1
 295  141  142 1
 296  141  302 1
 297  141  303 1
 298  142  143 2
 299  142  144 am
 300  144  304 1
 301  144  305 1
 302  145  150 1
 303  145  146 1
 304  145  306 1
 305  145  307 1
 306  146  148 1
 307  146  147 1
 308  146  308 1
 309  147  149 2
 310  147  153 am
 311  148  309 1
 312  150  151 am
 313  150  152 2
 314  151  310 1
 315  151  311 1
 316  153  312 1
 317  153  313 1

#	End of record

