#	Name: ASD01910610
#	Creating user name:	WinNT
#	Creation time:	15. 06. 2019 19:56

#	Modifying user name:	WinNT
#	Modification time:	15. 06. 2019 19:56

#	Program:	/corina/corina34_cracker 3.40 0067  02.08.2006

@<TRIPOS>MOLECULE
ASD01910610
  43   46    0    0    0
SMALL
NO_CHARGES


@<TRIPOS>ATOM
   1 C1             2.2767     0.0621     1.7929 C.ar    
   2 C2             2.2440    -1.2588     1.3737 C.ar    
   3 C3             3.2165    -1.7422     0.5122 C.ar    
   4 C4             4.2219    -0.9104     0.0672 C.ar    
   5 C5             4.2594     0.4211     0.4858 C.ar    
   6 C6             3.2775     0.9026     1.3540 C.ar    
   7 C7             5.3344     1.3172     0.0123 C.2     
   8 N8             5.4943     2.5915     0.3237 N.2     
   9 C9             6.5943     2.9874    -0.3353 C.2     
  10 N10            7.0440     1.9649    -1.0011 N.2     
  11 O11            6.3419     0.9939    -0.8133 O.3     
  12 C12            7.1988     4.3676    -0.3089 C.3     
  13 C13            8.6287     4.2888     0.2308 C.3     
  14 C14            9.2321     5.6940     0.2888 C.3     
  15 C15            9.2805     6.2833    -1.1244 C.3     
  16 N16            7.9323     6.2291    -1.7058 N.am    
  17 C17            7.2242     4.9419    -1.7289 C.3     
  18 C18            7.3561     7.3389    -2.2085 C.2     
  19 C19            8.0253     8.6448    -2.0684 C.2     
  20 O20            6.2841     7.2630    -2.7776 O.2     
  21 F21            1.2610    -2.0782     1.8068 F       
  22 C22            8.1608     9.6421    -3.0032 C.2     
  23 O23            8.8409    10.6247    -2.4081 O.3     
  24 N24            9.1343    10.3739    -1.2649 N.2     
  25 C25            8.7072     9.2042    -0.8912 C.2     
  26 C26            7.6445     9.6296    -4.4189 C.3     
  27 H27            1.5142     0.4347     2.4609 H       
  28 H28            3.1868    -2.7724     0.1893 H       
  29 H29            4.9793    -1.2881    -0.6037 H       
  30 H30            3.3017     1.9318     1.6806 H       
  31 H31            6.6021     5.0139     0.3348 H       
  32 H32            8.6158     3.8575     1.2318 H       
  33 H33            9.2310     3.6618    -0.4267 H       
  34 H34            8.6164     6.3282     0.9266 H       
  35 H35           10.2420     5.6398     0.6952 H       
  36 H36            9.6166     7.3192    -1.0770 H       
  37 H37            9.9674     5.7019    -1.7394 H       
  38 H38            7.7433     4.2511    -2.3932 H       
  39 H39            6.2035     5.0927    -2.0804 H       
  40 H40            8.8334     8.7389     0.0752 H       
  41 H41            6.6370    10.0450    -4.4418 H       
  42 H42            8.2995    10.2303    -5.0499 H       
  43 H43            7.6234     8.6045    -4.7889 H       
@<TRIPOS>BOND
   1    1    2 ar
   2    1    6 ar
   3    1   27 1
   4    2    3 ar
   5    2   21 1
   6    3    4 ar
   7    3   28 1
   8    4    5 ar
   9    4   29 1
  10    5    6 ar
  11    5    7 1
  12    6   30 1
  13    7    8 2
  14    7   11 1
  15    8    9 1
  16    9   10 2
  17    9   12 1
  18   10   11 1
  19   12   13 1
  20   12   17 1
  21   12   31 1
  22   13   14 1
  23   13   32 1
  24   13   33 1
  25   14   15 1
  26   14   34 1
  27   14   35 1
  28   15   16 1
  29   15   36 1
  30   15   37 1
  31   16   17 1
  32   16   18 am
  33   17   38 1
  34   17   39 1
  35   18   19 1
  36   18   20 2
  37   19   22 2
  38   19   25 1
  39   22   23 1
  40   22   26 1
  41   23   24 1
  42   24   25 2
  43   25   40 1
  44   26   41 1
  45   26   42 1
  46   26   43 1

#	End of record

