#	Name: ASD01883662
#	Creating user name:	WinNT
#	Creation time:	15. 06. 2019 19:46

#	Modifying user name:	WinNT
#	Modification time:	15. 06. 2019 19:46

#	Program:	/corina/corina34_cracker 3.40 0067  02.08.2006

@<TRIPOS>MOLECULE
ASD01883662
  46   48    0    0    0
SMALL
NO_CHARGES


@<TRIPOS>ATOM
   1 N1            -0.0106     1.3262    -0.2298 N.ar    
   2 C2             0.0052     0.0069    -0.2434 C.ar    
   3 C3             1.1967    -0.6873    -0.2082 C.ar    
   4 C4             2.3969     0.0276    -0.1575 C.ar    
   5 C5             2.3338     1.4236    -0.1447 C.ar    
   6 C6             1.0990     2.0382    -0.1824 C.ar    
   7 C7             3.7023    -0.6766    -0.1179 C.2     
   8 C8             3.8941    -2.0669    -0.2249 C.2     
   9 C9             5.2293    -2.3093    -0.1429 C.2     
  10 N10            5.8577    -1.1139     0.0104 N.pl3   
  11 N11            4.8821    -0.1090     0.0178 N.2     
  12 C12            1.0167     3.5429    -0.1691 C.3     
  13 C13            7.3028    -0.9115     0.1399 C.3     
  14 C14            7.9167    -0.7154    -1.2478 C.3     
  15 O15            7.4159     0.4926    -1.8238 O.3     
  16 N16            5.8428    -3.5579    -0.2045 N.pl3   
  17 C17            5.0644    -4.7195    -0.2181 C.ar    
  18 C18            5.4617    -5.8141    -0.9749 C.ar    
  19 C19            4.6914    -6.9607    -0.9864 C.ar    
  20 C20            3.5241    -7.0192    -0.2442 C.ar    
  21 C21            3.1259    -5.9288     0.5113 C.ar    
  22 C22            3.8955    -4.7824     0.5300 C.ar    
  23 C23            9.4392    -0.6286    -1.1243 C.3     
  24 F24            2.7721    -8.1414    -0.2573 F       
  25 C25            1.8546    -5.9955     1.3177 C.3     
  26 F26            1.6652    -4.7837     1.9907 F       
  27 F27            0.7718    -6.2283     0.4629 F       
  28 F28            1.9464    -7.0362     2.2480 F       
  29 H29           -0.9272    -0.5367    -0.2823 H       
  30 H30            1.2022    -1.7672    -0.2193 H       
  31 H31            3.2381     2.0127    -0.1060 H       
  32 H32            3.1190    -2.8086    -0.3495 H       
  33 H33            0.9601     3.8946     0.8611 H       
  34 H34            1.9034     3.9595    -0.6470 H       
  35 H35            0.1272     3.8630    -0.7117 H       
  36 H36            7.4928    -0.0280     0.7494 H       
  37 H37            7.7508    -1.7840     0.6154 H       
  38 H38            7.6514    -1.5590    -1.8849 H       
  39 H39            7.7634     0.6812    -2.7063 H       
  40 H40            6.8101    -3.6218    -0.2381 H       
  41 H41            6.3720    -5.7688    -1.5543 H       
  42 H42            4.9998    -7.8120    -1.5751 H       
  43 H43            3.5848    -3.9325     1.1195 H       
  44 H44            9.7046     0.2150    -0.4871 H       
  45 H45            9.8213    -1.5501    -0.6849 H       
  46 H46            9.8766    -0.4889    -2.1129 H       
@<TRIPOS>BOND
   1    1    2 ar
   2    1    6 ar
   3    2    3 ar
   4    2   29 1
   5    3    4 ar
   6    3   30 1
   7    4    5 ar
   8    4    7 1
   9    5    6 ar
  10    5   31 1
  11    6   12 1
  12    7    8 1
  13    7   11 2
  14    8    9 2
  15    8   32 1
  16    9   10 1
  17    9   16 1
  18   10   11 1
  19   10   13 1
  20   12   33 1
  21   12   34 1
  22   12   35 1
  23   13   14 1
  24   13   36 1
  25   13   37 1
  26   14   15 1
  27   14   23 1
  28   14   38 1
  29   15   39 1
  30   16   17 1
  31   16   40 1
  32   17   18 ar
  33   17   22 ar
  34   18   19 ar
  35   18   41 1
  36   19   20 ar
  37   19   42 1
  38   20   21 ar
  39   20   24 1
  40   21   22 ar
  41   21   25 1
  42   22   43 1
  43   23   44 1
  44   23   45 1
  45   23   46 1
  46   25   26 1
  47   25   27 1
  48   25   28 1

#	End of record

