#	Name: ASD03180054
#	Creating user name:	WinNT
#	Creation time:	15. 06. 2019 20:33

#	Modifying user name:	WinNT
#	Modification time:	15. 06. 2019 20:33

#	Program:	/corina/corina34_cracker 3.40 0067  02.08.2006

@<TRIPOS>MOLECULE
ASD03180054
  38   40    0    0    0
SMALL
NO_CHARGES


@<TRIPOS>ATOM
   1 C1             0.4136     1.0180    -1.5199 C.ar    
   2 C2             0.0975    -0.0525    -0.7038 C.ar    
   3 C3             0.9362    -0.4027     0.3387 C.ar    
   4 C4             2.0926     0.3162     0.5680 C.ar    
   5 C5             2.4132     1.3925    -0.2501 C.ar    
   6 C6             1.5687     1.7415    -1.2962 C.ar    
   7 N7             3.5828     2.1224    -0.0209 N.pl3   
   8 C8             3.5672     3.5051    -0.1180 C.2     
   9 C9             3.0055    -0.0658     1.7045 C.3     
  10 S10            2.1287     4.4907    -0.3622 S.3     
  11 C11            3.1189     5.9478    -0.3403 C.2     
  12 C12            4.4018     5.5842    -0.1578 C.2     
  13 N13            4.6093     4.2733    -0.0373 N.2     
  14 C14            6.8111     6.2901     0.0900 C.2     
  15 N15            7.5918     7.3489     0.1070 N.2     
  16 C16            5.5025     6.5699    -0.0900 C.2     
  17 S17            5.3402     8.3188    -0.2307 S.3     
  18 C18            7.0299     8.5005    -0.0463 C.2     
  19 C19            7.7593     9.8193    -0.0547 C.3     
  20 C20            7.3332     4.8856     0.2511 C.3     
  21 C21           -1.1639    -0.8392    -0.9507 C.3     
  22 H22           -0.2412     1.2860    -2.3358 H       
  23 H23            0.6862    -1.2393     0.9744 H       
  24 H24            1.8151     2.5774    -1.9341 H       
  25 H25            4.4055     1.6614     0.2061 H       
  26 H26            3.7417    -0.7882     1.3520 H       
  27 H27            3.5168     0.8230     2.0743 H       
  28 H28            2.4184    -0.5085     2.5091 H       
  29 H29            2.7584     6.9594    -0.4545 H       
  30 H30            8.0587    10.0624    -1.0741 H       
  31 H31            7.1019    10.6005     0.3271 H       
  32 H32            8.6448     9.7487     0.5770 H       
  33 H33            7.5840     4.4767    -0.7276 H       
  34 H34            8.2244     4.8990     0.8785 H       
  35 H35            6.5687     4.2653     0.7191 H       
  36 H36           -0.9524    -1.6591    -1.6371 H       
  37 H37           -1.5318    -1.2415    -0.0068 H       
  38 H38           -1.9200    -0.1862    -1.3866 H       
@<TRIPOS>BOND
   1    1    2 ar
   2    1    6 ar
   3    1   22 1
   4    2    3 ar
   5    2   21 1
   6    3    4 ar
   7    3   23 1
   8    4    5 ar
   9    4    9 1
  10    5    6 ar
  11    5    7 1
  12    6   24 1
  13    7    8 1
  14    7   25 1
  15    8   10 1
  16    8   13 2
  17    9   26 1
  18    9   27 1
  19    9   28 1
  20   10   11 1
  21   11   12 2
  22   11   29 1
  23   12   13 1
  24   12   16 1
  25   14   16 2
  26   14   20 1
  27   14   15 1
  28   15   18 2
  29   16   17 1
  30   17   18 1
  31   18   19 1
  32   19   30 1
  33   19   31 1
  34   19   32 1
  35   20   33 1
  36   20   34 1
  37   20   35 1
  38   21   36 1
  39   21   37 1
  40   21   38 1

#	End of record

