#	Name: ASD03331601
#	Creating user name:	WinNT
#	Creation time:	15. 06. 2019 20:39

#	Modifying user name:	WinNT
#	Modification time:	15. 06. 2019 20:39

#	Program:	/corina/corina34_cracker 3.40 0067  02.08.2006

@<TRIPOS>MOLECULE
ASD03331601
  63   65    0    0    0
SMALL
NO_CHARGES


@<TRIPOS>ATOM
   1 C1            -0.9508     0.2012     1.9709 C.ar    
   2 C2            -0.4520    -1.1070     1.4952 C.2     
   3 N3            -1.2093    -2.2143     1.2707 N.pl3   
   4 C4            -0.3833    -3.1991     0.8430 C.2     
   5 C5             0.8737    -2.6882     0.8103 C.2     
   6 N6             0.7990    -1.3973     1.2113 N.2     
   7 C7             2.0957    -3.4060     0.4068 C.2     
   8 N8             3.2853    -2.7726     0.4218 N.am    
   9 C9            -2.6670    -2.3692     1.4456 C.3     
  10 C10           -2.8753    -3.4094     2.5583 C.3     
  11 C11           -2.6989    -4.8104     2.0258 C.3     
  12 N12           -1.3473    -5.2235     1.7131 N.3     
  13 C13           -0.8326    -4.6018     0.4778 C.3     
  14 C14           -0.5239     1.3804     1.3551 C.ar    
  15 C15           -0.9937     2.6004     1.8036 C.ar    
  16 C16           -1.8853     2.6551     2.8613 C.ar    
  17 C17           -2.3124     1.4864     3.4770 C.ar    
  18 C18           -1.8542     0.2621     3.0331 C.ar    
  19 O19            2.0309    -4.5700     0.0603 O.2     
  20 C20            4.5002    -3.4862     0.0206 C.3     
  21 C21           -1.2463    -6.6876     1.6472 C.3     
  22 C22           -3.2630    -5.7844     3.0621 C.3     
  23 C23            4.6507    -3.4219    -1.5006 C.3     
  24 C24            5.6981    -2.8439     0.6715 C.2     
  25 C25            4.7396    -1.9600    -1.9430 C.3     
  26 C26            5.9242    -4.1597    -1.9187 C.3     
  27 C27            3.4387    -4.0819    -2.1613 C.3     
  28 N28            6.8707    -3.5059     0.7269 N.am    
  29 O29            5.6069    -1.7312     1.1454 O.2     
  30 C30            8.0049    -2.9274     1.4516 C.3     
  31 F31            0.3469     1.3282     0.3235 F       
  32 F32           -3.1822     1.5470     4.5090 F       
  33 F33           -2.3412     3.8503     3.2961 F       
  34 H34            3.3370    -1.8442     0.6981 H       
  35 H35           -3.1101    -1.4173     1.7382 H       
  36 H36           -3.1179    -2.7213     0.5178 H       
  37 H37           -2.1500    -3.2341     3.3529 H       
  38 H38           -3.8818    -3.3041     2.9634 H       
  39 H39           -3.2977    -4.9040     1.1198 H       
  40 H40           -1.6219    -4.5562    -0.2726 H       
  41 H41            0.0120    -5.1756     0.0964 H       
  42 H42           -0.6644     3.5126     1.3283 H       
  43 H43           -2.1871    -0.6465     3.5128 H       
  44 H44            4.4306    -4.5275     0.3352 H       
  45 H45           -1.9945    -7.0726     0.9543 H       
  46 H46           -0.2516    -6.9679     1.3006 H       
  47 H47           -1.4178    -7.1085     2.6379 H       
  48 H48           -4.2853    -5.4990     3.3103 H       
  49 H49           -3.2571    -6.7944     2.6524 H       
  50 H50           -2.6485    -5.7537     3.9618 H       
  51 H51            5.6030    -1.4898    -1.4723 H       
  52 H52            4.8468    -1.9142    -3.0268 H       
  53 H53            3.8323    -1.4344    -1.6451 H       
  54 H54            5.8404    -5.2119    -1.6469 H       
  55 H55            6.0571    -4.0725    -2.9971 H       
  56 H56            6.7823    -3.7202    -1.4101 H       
  57 H57            2.5314    -3.5563    -1.8634 H       
  58 H58            3.5459    -4.0362    -3.2450 H       
  59 H59            3.3754    -5.1234    -1.8461 H       
  60 H60            6.9638    -4.3653     0.2869 H       
  61 H61            8.2660    -1.9657     1.0099 H       
  62 H62            7.7333    -2.7850     2.4976 H       
  63 H63            8.8594    -3.6011     1.3866 H       
@<TRIPOS>BOND
   1    1    2 1
   2    1   14 ar
   3    1   18 ar
   4    2    3 1
   5    2    6 2
   6    3    4 1
   7    3    9 1
   8    4    5 2
   9    4   13 1
  10    5    6 1
  11    5    7 1
  12    7    8 am
  13    7   19 2
  14    8   20 1
  15    8   34 1
  16    9   10 1
  17    9   35 1
  18    9   36 1
  19   10   11 1
  20   10   37 1
  21   10   38 1
  22   11   12 1
  23   11   22 1
  24   11   39 1
  25   12   13 1
  26   12   21 1
  27   13   40 1
  28   13   41 1
  29   14   15 ar
  30   14   31 1
  31   15   16 ar
  32   15   42 1
  33   16   17 ar
  34   16   33 1
  35   17   18 ar
  36   17   32 1
  37   18   43 1
  38   20   23 1
  39   20   24 1
  40   20   44 1
  41   21   45 1
  42   21   46 1
  43   21   47 1
  44   22   48 1
  45   22   49 1
  46   22   50 1
  47   23   25 1
  48   23   26 1
  49   23   27 1
  50   24   28 am
  51   24   29 2
  52   25   51 1
  53   25   52 1
  54   25   53 1
  55   26   54 1
  56   26   55 1
  57   26   56 1
  58   27   57 1
  59   27   58 1
  60   27   59 1
  61   28   30 1
  62   28   60 1
  63   30   61 1
  64   30   62 1
  65   30   63 1

#	End of record

