#	Name: ASD01310050
#	Creating user name:	WinNT
#	Creation time:	15. 06. 2019 19:15

#	Modifying user name:	WinNT
#	Modification time:	15. 06. 2019 19:15

#	Program:	/corina/corina34_cracker 3.40 0067  02.08.2006

@<TRIPOS>MOLECULE
ASD01310050
  47   51    0    0    0
SMALL
NO_CHARGES


@<TRIPOS>ATOM
   1 C1            -0.0182     1.4916     0.0102 C.3     
   2 C2             0.0021    -0.0041     0.0020 C.ar    
   3 C3             0.0393    -0.7204    -1.1889 C.ar    
   4 C4            -0.2014     1.2581    -2.4802 C.2     
   5 C5            -0.0134    -0.7028     1.1949 C.ar    
   6 N6             0.0162    -2.0214     1.2074 N.ar    
   7 C7             0.0628    -2.7323     0.0967 C.ar    
   8 C8             0.0755    -2.1110    -1.1362 C.ar    
   9 N9             1.2887     3.4068    -0.5771 N.am    
  10 C10            1.4189     2.0553    -0.0005 C.3     
  11 C11           -0.6129     2.0706    -1.2865 C.3     
  12 C12            0.0641     3.4572    -1.3893 C.3     
  13 N13            0.0367    -0.0580    -2.4102 N.am    
  14 O14           -0.0804     1.8157    -3.5504 O.2     
  15 S15            2.3462     4.6602    -0.3470 S.o2    
  16 O16            1.6110     5.8536    -0.5802 O.2     
  17 O17            3.0270     4.3922     0.8712 O.2     
  18 C18            3.5558     4.5633    -1.6246 C.ar    
  19 C19            4.7013     3.8212    -1.4282 C.ar    
  20 C20            3.3465     5.2295    -2.8234 C.ar    
  21 C21            5.6526     3.7457    -2.4360 C.ar    
  22 C22            4.2718     5.1661    -3.8268 C.ar    
  23 H23           -0.5611     1.8565     0.8821 H       
  24 H24           -1.6979     2.1511    -1.2213 H       
  25 C25            0.2989    -0.8102    -3.6397 C.3     
  26 N26            6.8719     3.1105    -2.5617 N.pl3   
  27 C27            5.4426     4.4252    -3.6482 C.ar    
  28 N28            6.5214     4.1746    -4.4339 N.2     
  29 C29            7.3566     3.4060    -3.7980 C.2     
  30 C30            7.5233     2.2737    -1.5508 C.3     
  31 H31           -0.0498    -0.1618     2.1289 H       
  32 H32            0.0913    -3.8104     0.1525 H       
  33 H33            0.1129    -2.6941    -2.0445 H       
  34 H34            1.8119     2.1120     1.0147 H       
  35 H35            2.0644     1.4370    -0.6243 H       
  36 H36           -0.6053     4.2260    -1.0034 H       
  37 H37            0.3167     3.6702    -2.4280 H       
  38 H38            4.8576     3.3014    -0.4945 H       
  39 H39            2.4428     5.8037    -2.9651 H       
  40 H40            4.0984     5.6879    -4.7563 H       
  41 H41           -0.6415    -1.1844    -4.0443 H       
  42 H42            0.7747    -0.1568    -4.3710 H       
  43 H43            0.9587    -1.6492    -3.4186 H       
  44 H44            8.2975     3.0535    -4.1941 H       
  45 H45            7.2134     1.2370    -1.6828 H       
  46 H46            8.6053     2.3464    -1.6613 H       
  47 H47            7.2359     2.6151    -0.5564 H       
@<TRIPOS>BOND
   1    1    2 1
   2    1   10 1
   3    1   11 1
   4    1   23 1
   5    2    3 ar
   6    2    5 ar
   7    3   13 1
   8    3    8 ar
   9    4   11 1
  10    4   14 2
  11    4   13 am
  12    5    6 ar
  13    5   31 1
  14    6    7 ar
  15    7    8 ar
  16    7   32 1
  17    8   33 1
  18    9   10 1
  19    9   12 1
  20    9   15 am
  21   10   34 1
  22   10   35 1
  23   11   12 1
  24   11   24 1
  25   12   36 1
  26   12   37 1
  27   13   25 1
  28   15   16 2
  29   15   17 2
  30   15   18 1
  31   18   20 ar
  32   18   19 ar
  33   19   21 ar
  34   19   38 1
  35   20   22 ar
  36   20   39 1
  37   21   27 ar
  38   21   26 1
  39   22   27 ar
  40   22   40 1
  41   25   41 1
  42   25   42 1
  43   25   43 1
  44   26   29 1
  45   26   30 1
  46   27   28 1
  47   28   29 2
  48   29   44 1
  49   30   45 1
  50   30   46 1
  51   30   47 1

#	End of record

