#	Name: ASD07300935
#	Creating user name:	WinNT
#	Creation time:	15. 06. 2019 21:10

#	Modifying user name:	WinNT
#	Modification time:	15. 06. 2019 21:10

#	Program:	/corina/corina34_cracker 3.40 0067  02.08.2006

@<TRIPOS>MOLECULE
ASD07300935
  51   55    0    0    0
SMALL
NO_CHARGES


@<TRIPOS>ATOM
   1 N1             0.0649     1.5157     0.0229 N.am    
   2 C2            -0.0120     0.1689    -0.1237 C.2     
   3 N3             1.0356    -0.5923    -0.2460 N.2     
   4 C4             2.2810    -0.0914    -0.2359 C.2     
   5 C5             2.4606     1.2931    -0.0893 C.2     
   6 C6             1.2699     2.1319     0.0472 C.2     
   7 N7             3.5215    -0.6345    -0.3411 N.pl3   
   8 N8             4.4628     0.3996    -0.2610 N.2     
   9 C9             3.8460     1.5394    -0.1125 C.2     
  10 O10            1.3595     3.3399     0.1772 O.2     
  11 C11            3.8234    -2.0582    -0.5091 C.3     
  12 C12            4.4381    -2.2896    -1.8909 C.3     
  13 C13            4.7534    -3.7764    -2.0664 C.3     
  14 C14            5.7435    -4.2187    -0.9871 C.3     
  15 C15            5.1287    -3.9873     0.3947 C.3     
  16 C16            4.8135    -2.5004     0.5702 C.3     
  17 C17           -1.3744    -0.4748    -0.1453 C.3     
  18 C18           -1.4028    -1.8324    -0.8671 C.3     
  19 C19           -2.3499    -2.3148     0.2444 C.3     
  20 C20           -1.7138    -1.2418     1.1437 C.3     
  21 C21           -0.5007    -1.7258     1.8954 C.ar    
  22 N22           -0.2991    -1.3039     3.1277 N.ar    
  23 F23            6.0317    -5.5782    -1.1475 F       
  24 F24            6.9228    -3.4751    -1.1032 F       
  25 C25            0.7548    -1.7077     3.8187 C.ar    
  26 C26            1.6513    -2.5852     3.2295 C.ar    
  27 C27            1.4055    -3.0065     1.9322 C.ar    
  28 N28            0.3275    -2.5639     1.3050 N.ar    
  29 C29            2.8644    -3.0692     3.9812 C.3     
  30 H30           -0.7472     2.0395     0.1067 H       
  31 H31            4.3179     2.5067    -0.0227 H       
  32 H32            2.9045    -2.6375    -0.4186 H       
  33 H33            3.7327    -1.9745    -2.6598 H       
  34 H34            5.3570    -1.7102    -1.9814 H       
  35 H35            3.8345    -4.3558    -1.9759 H       
  36 H36            5.1913    -3.9413    -3.0508 H       
  37 H37            4.2099    -4.5666     0.4853 H       
  38 H38            5.8341    -4.3023     1.1637 H       
  39 H39            5.7324    -1.9211     0.4797 H       
  40 H40            4.3755    -2.3356     1.5546 H       
  41 H41           -2.1601     0.2080    -0.4684 H       
  42 H42           -1.8689    -1.7938    -1.8516 H       
  43 H43           -0.4404    -2.3440    -0.8731 H       
  44 H44           -3.4032    -2.1355     0.0288 H       
  45 H45           -2.1520    -3.3346     0.5745 H       
  46 H46           -2.4310    -0.7263     1.7825 H       
  47 H47            0.9143    -1.3579     4.8279 H       
  48 H48            2.0826    -3.6897     1.4411 H       
  49 H49            2.6387    -4.0217     4.4607 H       
  50 H50            3.6942    -3.1998     3.2865 H       
  51 H51            3.1379    -2.3362     4.7402 H       
@<TRIPOS>BOND
   1    1    2 1
   2    1    6 am
   3    1   30 1
   4    2    3 2
   5    2   17 1
   6    3    4 1
   7    4    5 2
   8    4    7 1
   9    5    6 1
  10    5    9 1
  11    6   10 2
  12    7    8 1
  13    7   11 1
  14    8    9 2
  15    9   31 1
  16   11   12 1
  17   11   16 1
  18   11   32 1
  19   12   13 1
  20   12   33 1
  21   12   34 1
  22   13   14 1
  23   13   35 1
  24   13   36 1
  25   14   15 1
  26   14   23 1
  27   14   24 1
  28   15   16 1
  29   15   37 1
  30   15   38 1
  31   16   39 1
  32   16   40 1
  33   17   18 1
  34   17   20 1
  35   17   41 1
  36   18   19 1
  37   18   42 1
  38   18   43 1
  39   19   20 1
  40   19   44 1
  41   19   45 1
  42   20   21 1
  43   20   46 1
  44   21   22 ar
  45   21   28 ar
  46   22   25 ar
  47   25   26 ar
  48   25   47 1
  49   26   27 ar
  50   26   29 1
  51   27   28 ar
  52   27   48 1
  53   29   49 1
  54   29   50 1
  55   29   51 1

#	End of record

