#	Name: ASD07930796
#	Creating user name:	WinNT
#	Creation time:	15. 06. 2019 21:13

#	Modifying user name:	WinNT
#	Modification time:	15. 06. 2019 21:13

#	Program:	/corina/corina34_cracker 3.40 0067  02.08.2006

@<TRIPOS>MOLECULE
ASD07930796
  45   48    0    0    0
SMALL
NO_CHARGES


@<TRIPOS>ATOM
   1 C1             2.9715    -1.1787    -1.4900 C.3     
   2 N2             2.4545    -3.0909     0.7432 N.2     
   3 N3             0.4221    -3.4517    -0.3524 N.pl3   
   4 C4            -0.9005    -2.8248    -0.2586 C.3     
   5 C5            -0.9790    -1.6579    -1.2527 C.3     
   6 S6             0.3868    -0.5090    -0.8938 S.o2    
   7 N7             1.7095    -1.5202    -0.8288 N.am    
   8 C8             1.5566    -2.7021    -0.1179 C.2     
   9 C9            -1.1180    -2.3010     1.1623 C.3     
  10 C10           -1.9634    -3.8404    -0.5898 C.ar    
  11 C11           -2.7938    -3.6310    -1.6683 C.ar    
  12 C12           -3.7771    -4.5644    -1.9804 C.ar    
  13 C13           -3.9126    -5.7184    -1.1858 C.ar    
  14 C14           -3.0619    -5.9174    -0.0937 C.ar    
  15 C15           -2.0920    -4.9824     0.1934 C.ar    
  16 F16           -1.2679    -5.1709     1.2471 F       
  17 N17           -4.7330    -4.6310    -2.9705 N.pl3   
  18 C18           -5.4685    -5.7858    -2.8310 C.2     
  19 C19           -5.0143    -6.4867    -1.7622 C.2     
  20 C20           -6.5823    -6.1989    -3.7106 C.ar    
  21 O21            0.6388     0.3382    -2.0065 O.2     
  22 O22            0.2724     0.0151     0.4220 O.2     
  23 N23           -7.2197    -7.3402    -3.4751 N.ar    
  24 C24           -8.2171    -7.7433    -4.2356 C.ar    
  25 C25           -8.6384    -6.9877    -5.3141 C.ar    
  26 C26           -8.0000    -5.7876    -5.5966 C.ar    
  27 C27           -6.9598    -5.3841    -4.7790 C.ar    
  28 H28            3.6041    -0.6210    -0.7995 H       
  29 H29            3.4820    -2.0929    -1.7928 H       
  30 H30            2.7672    -0.5682    -2.3695 H       
  31 H31            3.2459    -2.5512     0.8958 H       
  32 H32            0.4990    -4.3927    -0.5751 H       
  33 H33           -0.8837    -2.0354    -2.2708 H       
  34 H34           -1.9325    -1.1421    -1.1393 H       
  35 H35           -0.3497    -1.5651     1.3999 H       
  36 H36           -2.1010    -1.8352     1.2314 H       
  37 H37           -1.0581    -3.1295     1.8681 H       
  38 H38           -2.6820    -2.7421    -2.2715 H       
  39 H39           -3.1621    -6.8013     0.5188 H       
  40 H40           -4.8675    -3.9640    -3.6618 H       
  41 H41           -5.3944    -7.4324    -1.4051 H       
  42 H42           -8.7121    -8.6772    -4.0138 H       
  43 H43           -9.4567    -7.3281    -5.9314 H       
  44 H44           -8.3116    -5.1804    -6.4336 H       
  45 H45           -6.4415    -4.4560    -4.9697 H       
@<TRIPOS>BOND
   1    1    7 1
   2    1   28 1
   3    1   29 1
   4    1   30 1
   5    2    8 2
   6    2   31 1
   7    3    4 1
   8    3    8 1
   9    3   32 1
  10    4    5 1
  11    4    9 1
  12    4   10 1
  13    5    6 1
  14    5   33 1
  15    5   34 1
  16    6    7 am
  17    6   21 2
  18    6   22 2
  19    7    8 1
  20    9   35 1
  21    9   36 1
  22    9   37 1
  23   10   11 ar
  24   10   15 ar
  25   11   12 ar
  26   11   38 1
  27   12   13 ar
  28   12   17 1
  29   13   14 ar
  30   13   19 1
  31   14   15 ar
  32   14   39 1
  33   15   16 1
  34   17   18 1
  35   17   40 1
  36   18   19 2
  37   18   20 1
  38   19   41 1
  39   20   23 ar
  40   20   27 ar
  41   23   24 ar
  42   24   25 ar
  43   24   42 1
  44   25   26 ar
  45   25   43 1
  46   26   27 ar
  47   26   44 1
  48   27   45 1

#	End of record

