#	Name: ASD09740273
#	Creating user name:	WinNT
#	Creation time:	15. 06. 2019 21:23

#	Modifying user name:	WinNT
#	Modification time:	15. 06. 2019 21:23

#	Program:	/corina/corina34_cracker 3.40 0067  02.08.2006

@<TRIPOS>MOLECULE
ASD09740273
  38   41    0    0    0
SMALL
NO_CHARGES


@<TRIPOS>ATOM
   1 N1            -0.5315     0.6503     2.4783 N.2     
   2 O2            -0.4145    -0.4650     2.0166 O.3     
   3 C3             0.5614     1.3416     2.2793 C.2     
   4 N4             1.4289     0.5434     1.6226 N.2     
   5 C5             0.7986    -0.6045     1.4600 C.2     
   6 C6             1.3278    -1.8130     0.7927 C.ar    
   7 C7             0.8022     2.7453     2.6980 C.ar    
   8 C8             0.5406    -2.9602     0.6955 C.ar    
   9 C9             1.0429    -4.0885     0.0685 C.ar    
  10 C10            2.3264    -4.0760    -0.4606 C.ar    
  11 C11            3.1079    -2.9392    -0.3650 C.ar    
  12 C12            2.6151    -1.8080     0.2525 C.ar    
  13 C13           -0.1897     3.4535     3.3728 C.ar    
  14 C14            0.0394     4.7584     3.7598 C.ar    
  15 C15            1.2511     5.3632     3.4782 C.ar    
  16 C16            2.2392     4.6648     2.8081 C.ar    
  17 C17            2.0230     3.3573     2.4225 C.ar    
  18 O18            0.2793    -5.2085    -0.0283 O.3     
  19 C19           -0.5354    -5.3336    -1.1087 C.ar    
  20 C20           -0.4919    -4.3900    -2.1250 C.ar    
  21 C21           -1.4082    -6.4084    -1.2002 C.ar    
  22 C22           -2.2353    -6.5333    -2.2995 C.ar    
  23 C23           -2.1937    -5.5887    -3.3083 C.ar    
  24 C24           -1.3211    -4.5196    -3.2221 C.ar    
  25 H25           -0.4574    -2.9688     1.1082 H       
  26 H26            2.7160    -4.9573    -0.9484 H       
  27 H27            4.1057    -2.9355    -0.7782 H       
  28 H28            3.2281    -0.9218     0.3255 H       
  29 H29           -1.1364     2.9824     3.5925 H       
  30 H30           -0.7288     5.3083     4.2830 H       
  31 H31            1.4262     6.3846     3.7825 H       
  32 H32            3.1834     5.1419     2.5904 H       
  33 H33            2.7953     2.8127     1.8995 H       
  34 H34            0.1895    -3.5547    -2.0582 H       
  35 H35           -1.4406    -7.1469    -0.4127 H       
  36 H36           -2.9148    -7.3697    -2.3711 H       
  37 H37           -2.8409    -5.6884    -4.1671 H       
  38 H38           -1.2909    -3.7829    -4.0113 H       
@<TRIPOS>BOND
   1    1    2 1
   2    1    3 2
   3    2    5 1
   4    3    4 1
   5    3    7 1
   6    4    5 2
   7    5    6 1
   8    6    8 ar
   9    6   12 ar
  10    7   13 ar
  11    7   17 ar
  12    8    9 ar
  13    8   25 1
  14    9   10 ar
  15    9   18 1
  16   10   11 ar
  17   10   26 1
  18   11   12 ar
  19   11   27 1
  20   12   28 1
  21   13   14 ar
  22   13   29 1
  23   14   15 ar
  24   14   30 1
  25   15   16 ar
  26   15   31 1
  27   16   17 ar
  28   16   32 1
  29   17   33 1
  30   18   19 1
  31   19   20 ar
  32   19   21 ar
  33   20   24 ar
  34   20   34 1
  35   21   22 ar
  36   21   35 1
  37   22   23 ar
  38   22   36 1
  39   23   24 ar
  40   23   37 1
  41   24   38 1

#	End of record

