#	Name: ASD00844650
#	Creating user name:	WinNT
#	Creation time:	15. 06. 2019 18:50

#	Modifying user name:	WinNT
#	Modification time:	15. 06. 2019 18:50

#	Program:	/corina/corina34_cracker 3.40 0067  02.08.2006

@<TRIPOS>MOLECULE
ASD00844650
  92   97    0    0    0
SMALL
NO_CHARGES


@<TRIPOS>ATOM
   1 C1             0.7909     1.2440    -0.4414 C.ar    
   2 C2             1.0246    -0.0991    -0.6975 C.ar    
   3 C3             0.9311    -1.0256     0.3312 C.ar    
   4 C4             0.6058    -0.6086     1.6071 C.ar    
   5 C5             0.3729     0.7309     1.8598 C.ar    
   6 C6             0.4658     1.6560     0.8367 C.ar    
   7 C7             1.1838    -2.4856     0.0563 C.3     
   8 C8             0.8862    -3.3161     1.2866 C.2     
   9 C9             0.3398    -2.9607    -1.1281 C.3     
  10 C10           -1.1126    -2.6579    -0.8634 C.2     
  11 N11           -2.0569    -3.0771    -1.7289 N.am    
  12 O12           -1.4317    -2.0370     0.1283 O.2     
  13 C13           -3.4630    -2.6918    -1.5470 C.3     
  14 C14           -4.3243    -3.9587    -1.5386 C.3     
  15 C15           -4.0528    -4.7638    -2.8115 C.3     
  16 C16           -2.5807    -5.1807    -2.8491 C.3     
  17 C17           -1.6989    -3.9230    -2.8756 C.3     
  18 C18           -4.9367    -6.0125    -2.8230 C.3     
  19 C19           -6.4100    -5.5970    -2.7871 C.3     
  20 C20           -7.2895    -6.8472    -2.8603 C.3     
  21 N21           -6.9991    -7.5797    -4.0994 N.3     
  22 C22           -5.6018    -8.0300    -4.1350 C.3     
  23 C23           -4.6719    -6.8151    -4.0999 C.3     
  24 C24           -7.9211    -8.7104    -4.2710 C.3     
  25 O25           -0.1848    -3.4149     1.8473 O.2     
  26 N26            2.0315    -3.9229     1.6410 N.am    
  27 C27            2.6525    -2.7288    -0.2050 C.ar    
  28 C28            3.0870    -3.5996     0.7867 C.ar    
  29 C29            3.5200    -2.2676    -1.1694 C.ar    
  30 C30            4.8444    -2.6721    -1.1579 C.ar    
  31 C31            5.2904    -3.5404    -0.1742 C.ar    
  32 C32            4.4200    -4.0035     0.7940 C.ar    
  33 Cl33           5.9421    -2.0938    -2.3722 Cl      
  34 F34            6.5822    -3.9359    -0.1617 F       
  35 C35            1.8286    -6.5686     2.3716 C.ar    
  36 C36            2.8539    -7.3657     1.8972 C.ar    
  37 C37            0.5333    -7.0511     2.4045 C.ar    
  38 C38            0.2605    -8.3314     1.9633 C.ar    
  39 C39            1.2875    -9.1332     1.4868 C.ar    
  40 C40            2.5863    -8.6466     1.4544 C.ar    
  41 O41            1.0218   -10.3933     1.0526 O.3     
  42 H42            3.8649    -6.9865     1.8725 H       
  43 C43            2.1280   -11.1619     0.5755 C.3     
  44 C44           -7.7566    -9.2939    -5.6758 C.3     
  45 S45            2.1743    -4.9376     2.9418 S.o2    
  46 O46            3.5462    -4.9245     3.3123 O.2     
  47 O47            1.1246    -4.5942     3.8359 O.2     
  48 O48            1.3440    -0.5069    -1.9539 O.3     
  49 C49            1.3569     0.4913    -2.9763 C.3     
  50 C50            1.8109    -0.1361    -4.2959 C.3     
  51 F51            3.0601    -0.7408    -4.1193 F       
  52 F52            0.8796    -1.0990    -4.6992 F       
  53 H53            0.8674     1.9676    -1.2395 H       
  54 H54            0.5329    -1.3294     2.4081 H       
  55 H55            0.1180     1.0548     2.8580 H       
  56 H56            0.2835     2.7016     1.0365 H       
  57 H57            0.6597    -2.4436    -2.0328 H       
  58 H58            0.4690    -4.0351    -1.2586 H       
  59 H59           -3.5781    -2.1654    -0.5995 H       
  60 H60           -3.7735    -2.0443    -2.3671 H       
  61 H61           -4.0748    -4.5624    -0.6661 H       
  62 H62           -5.3779    -3.6820    -1.5009 H       
  63 H63           -4.2791    -4.1509    -3.6840 H       
  64 H64           -2.3476    -5.7729    -1.9643 H       
  65 H65           -2.3934    -5.7738    -3.7442 H       
  66 H66           -1.8668    -3.3785    -3.8047 H       
  67 H67           -0.6500    -4.2106    -2.8026 H       
  68 H68           -4.7102    -6.6272    -1.9518 H       
  69 H69           -6.6146    -5.0619    -1.8598 H       
  70 H70           -6.6263    -4.9496    -3.6369 H       
  71 H71           -7.0825    -7.4876    -2.0028 H       
  72 H72           -8.3393    -6.5539    -2.8493 H       
  73 H73           -5.4027    -8.6648    -3.2716 H       
  74 H74           -5.4258    -8.5958    -5.0499 H       
  75 H75           -4.8609    -6.1869    -4.9703 H       
  76 H76           -3.6348    -7.1502    -4.1105 H       
  77 H77           -7.6968    -9.4778    -3.5302 H       
  78 H78           -8.9468    -8.3661    -4.1384 H       
  79 H79            3.1679    -1.5914    -1.9343 H       
  80 H80            4.7741    -4.6798     1.5580 H       
  81 H81           -0.2658    -6.4266     2.7758 H       
  82 H82           -0.7514    -8.7080     1.9895 H       
  83 H83            3.3876    -9.2689     1.0843 H       
  84 H84            2.5871   -10.6511    -0.2709 H       
  85 H85            2.8622   -11.2757     1.3731 H       
  86 H86            1.7784   -12.1451     0.2605 H       
  87 H87           -6.7309    -9.6381    -5.8084 H       
  88 H88           -8.4408   -10.1328    -5.8031 H       
  89 H89           -7.9810    -8.5264    -6.4166 H       
  90 H90            0.3545     0.9024    -3.0954 H       
  91 H91            2.0458     1.2885    -2.6971 H       
  92 H92            1.8867     0.6382    -5.0593 H       
@<TRIPOS>BOND
   1    1    2 ar
   2    1    6 ar
   3    1   53 1
   4    2    3 ar
   5    2   48 1
   6    3    4 ar
   7    3    7 1
   8    4    5 ar
   9    4   54 1
  10    5    6 ar
  11    5   55 1
  12    6   56 1
  13    7    8 1
  14    7    9 1
  15    7   27 1
  16    8   25 2
  17    8   26 am
  18    9   10 1
  19    9   57 1
  20    9   58 1
  21   10   11 am
  22   10   12 2
  23   11   13 1
  24   11   17 1
  25   13   14 1
  26   13   59 1
  27   13   60 1
  28   14   15 1
  29   14   61 1
  30   14   62 1
  31   15   16 1
  32   15   18 1
  33   15   63 1
  34   16   17 1
  35   16   64 1
  36   16   65 1
  37   17   66 1
  38   17   67 1
  39   18   19 1
  40   18   23 1
  41   18   68 1
  42   19   20 1
  43   19   69 1
  44   19   70 1
  45   20   21 1
  46   20   71 1
  47   20   72 1
  48   21   22 1
  49   21   24 1
  50   22   23 1
  51   22   73 1
  52   22   74 1
  53   23   75 1
  54   23   76 1
  55   24   44 1
  56   24   77 1
  57   24   78 1
  58   26   45 am
  59   26   28 1
  60   27   28 ar
  61   27   29 ar
  62   28   32 ar
  63   29   30 ar
  64   29   79 1
  65   30   31 ar
  66   30   33 1
  67   31   32 ar
  68   31   34 1
  69   32   80 1
  70   35   36 ar
  71   35   37 ar
  72   35   45 1
  73   36   42 1
  74   36   40 ar
  75   37   38 ar
  76   37   81 1
  77   38   39 ar
  78   38   82 1
  79   39   40 ar
  80   39   41 1
  81   40   83 1
  82   41   43 1
  83   43   84 1
  84   43   85 1
  85   43   86 1
  86   44   87 1
  87   44   88 1
  88   44   89 1
  89   45   46 2
  90   45   47 2
  91   48   49 1
  92   49   50 1
  93   49   90 1
  94   49   91 1
  95   50   51 1
  96   50   52 1
  97   50   92 1

#	End of record

