#	Name: ASD01420014
#	Creating user name:	WinNT
#	Creation time:	15. 06. 2019 19:20

#	Modifying user name:	WinNT
#	Modification time:	15. 06. 2019 19:20

#	Program:	/corina/corina34_cracker 3.40 0067  02.08.2006

@<TRIPOS>MOLECULE
ASD01420014
  46   48    0    0    0
SMALL
NO_CHARGES


@<TRIPOS>ATOM
   1 C1            -0.0144     1.2116     0.0087 C.2     
   2 O2             0.0742     0.1088     0.5128 O.2     
   3 C3             0.9555     3.0385    -1.3130 C.3     
   4 N4             1.0596     1.7698    -0.5842 N.am    
   5 C5             2.3849     1.1310    -0.5261 C.3     
   6 C6             2.7818     0.7436    -1.9498 C.3     
   7 C7             2.5518     1.8885    -2.9009 C.ar    
   8 C8             3.2275     1.8629    -4.1151 C.ar    
   9 C9             3.0553     2.8755    -5.0354 C.ar    
  10 C10            2.2029     3.9262    -4.7503 C.ar    
  11 C11            1.5338     3.9561    -3.5443 C.ar    
  12 C12            1.7093     2.9392    -2.6155 C.ar    
  13 C13           -1.2997     1.9366     0.0407 C.ar    
  14 C14           -2.5033     1.2338    -0.0620 C.ar    
  15 C15           -3.7001     1.9138    -0.0318 C.ar    
  16 C16           -3.7123     3.2976     0.1007 C.ar    
  17 C17           -2.5176     4.0001     0.2031 C.ar    
  18 C18           -1.3164     3.3268     0.1795 C.ar    
  19 O19           -4.8941     3.9642     0.1296 O.3     
  20 C20           -4.9985     1.1570    -0.1429 C.3     
  21 C21           -4.7070    -0.3389    -0.2784 C.3     
  22 C22           -5.8401     1.4010     1.1113 C.3     
  23 C23           -5.7668     1.6404    -1.3746 C.3     
  24 H24           -0.0932     3.2550    -1.5164 H       
  25 H25            1.3800     3.8400    -0.7085 H       
  26 H26            3.1140     1.8307    -0.1174 H       
  27 H27            2.3375     0.2394     0.0991 H       
  28 H28            3.8369     0.4705    -1.9661 H       
  29 H29            2.1859    -0.1119    -2.2679 H       
  30 H30            3.8935     1.0430    -4.3398 H       
  31 H31            3.5851     2.8480    -5.9761 H       
  32 H32            2.0619     4.7203    -5.4686 H       
  33 H33            0.8685     4.7770    -3.3208 H       
  34 H34           -2.4946     0.1588    -0.1653 H       
  35 H35           -2.5313     5.0752     0.3058 H       
  36 H36           -0.3886     3.8730     0.2636 H       
  37 H37           -5.2626     4.0731     1.0169 H       
  38 H38           -4.1597    -0.6833     0.5991 H       
  39 H39           -5.6461    -0.8863    -0.3588 H       
  40 H40           -4.1075    -0.5127    -1.1719 H       
  41 H41           -6.0478     2.4667     1.2078 H       
  42 H42           -6.7792     0.8536     1.0310 H       
  43 H43           -5.2927     1.0566     1.9888 H       
  44 H44           -5.1673     1.4665    -2.2681 H       
  45 H45           -6.7059     1.0930    -1.4549 H       
  46 H46           -5.9745     2.7061    -1.2781 H       
@<TRIPOS>BOND
   1    1    2 2
   2    1    4 am
   3    1   13 1
   4    3    4 1
   5    3   12 1
   6    3   24 1
   7    3   25 1
   8    4    5 1
   9    5    6 1
  10    5   26 1
  11    5   27 1
  12    6    7 1
  13    6   28 1
  14    6   29 1
  15    7    8 ar
  16    7   12 ar
  17    8    9 ar
  18    8   30 1
  19    9   10 ar
  20    9   31 1
  21   10   11 ar
  22   10   32 1
  23   11   12 ar
  24   11   33 1
  25   13   14 ar
  26   13   18 ar
  27   14   15 ar
  28   14   34 1
  29   15   16 ar
  30   15   20 1
  31   16   17 ar
  32   16   19 1
  33   17   18 ar
  34   17   35 1
  35   18   36 1
  36   19   37 1
  37   20   21 1
  38   20   23 1
  39   20   22 1
  40   21   38 1
  41   21   39 1
  42   21   40 1
  43   22   41 1
  44   22   42 1
  45   22   43 1
  46   23   44 1
  47   23   45 1
  48   23   46 1

#	End of record

