#	Name: ASD00069390
#	Creating user name:	WinNT
#	Creation time:	15. 06. 2019 18:29

#	Modifying user name:	WinNT
#	Modification time:	15. 06. 2019 18:29

#	Program:	/corina/corina34_cracker 3.40 0067  02.08.2006

@<TRIPOS>MOLECULE
ASD00069390
  37   38    0    0    0
SMALL
NO_CHARGES


@<TRIPOS>ATOM
   1 C1            -0.1200     1.4199    -0.0721 C.ar    
   2 C2            -0.1133     0.0251    -0.1133 C.ar    
   3 N3             1.0439    -0.6106    -0.2714 N.ar    
   4 C4             2.1758     0.0668    -0.3885 C.ar    
   5 N5             2.2006     1.3911    -0.3532 N.ar    
   6 C6             1.0840     2.0892    -0.1981 C.ar    
   7 Cl7            1.1326     3.8240    -0.1544 Cl      
   8 N8            -1.2953    -0.6872     0.0093 N.3     
   9 C9            -1.0473    -2.1389    -0.0628 C.3     
  10 C10           -1.9641    -0.3870     1.2932 C.3     
  11 C11           -2.6533    -1.7134     1.6998 C.3     
  12 C12           -1.6131    -2.7640     1.2297 C.3     
  13 C13           -2.2824    -4.0818     0.9355 C.2     
  14 O14           -2.6038    -4.3568    -0.1963 O.2     
  15 O15           -2.5215    -4.9501     1.9308 O.3     
  16 C16           -3.1694    -6.1996     1.5741 C.3     
  17 N17            3.3627    -0.6259    -0.5514 N.pl3   
  18 C18            4.6255     0.1051    -0.6828 C.3     
  19 O19           -0.5822    -2.9262     2.2058 O.3     
  20 C20            0.3927    -3.9133     1.8632 C.3     
  21 H21           -1.0445     1.9644     0.0508 H       
  22 H22           -1.5550    -2.5591    -0.9310 H       
  23 H23            0.0239    -2.3293    -0.1287 H       
  24 H24           -1.2301    -0.0950     2.0442 H       
  25 H25           -2.7056     0.4006     1.1597 H       
  26 H26           -2.7983    -1.7632     2.7790 H       
  27 H27           -3.5999    -1.8387     1.1741 H       
  28 H28           -2.5494    -6.7388     0.8578 H       
  29 H29           -3.3033    -6.8078     2.4688 H       
  30 H30           -4.1417    -5.9904     1.1281 H       
  31 H31            3.3586    -1.5955    -0.5787 H       
  32 H32            4.5790     0.7568    -1.5553 H       
  33 H33            4.7920     0.7062     0.2112 H       
  34 H34            5.4450    -0.6036    -0.8018 H       
  35 H35           -0.0769    -4.8968     1.8454 H       
  36 H36            0.8056    -3.6900     0.8795 H       
  37 H37            1.1928    -3.9060     2.6033 H       
@<TRIPOS>BOND
   1    1    2 ar
   2    1    6 ar
   3    1   21 1
   4    2    3 ar
   5    2    8 1
   6    3    4 ar
   7    4    5 ar
   8    4   17 1
   9    5    6 ar
  10    6    7 1
  11    8    9 1
  12    8   10 1
  13    9   12 1
  14    9   22 1
  15    9   23 1
  16   10   11 1
  17   10   24 1
  18   10   25 1
  19   11   12 1
  20   11   26 1
  21   11   27 1
  22   12   13 1
  23   12   19 1
  24   13   14 2
  25   13   15 1
  26   15   16 1
  27   16   28 1
  28   16   29 1
  29   16   30 1
  30   17   18 1
  31   17   31 1
  32   18   32 1
  33   18   33 1
  34   18   34 1
  35   19   20 1
  36   20   35 1
  37   20   36 1
  38   20   37 1

#	End of record

