#	Name: ASD01870166
#	Creating user name:	WinNT
#	Creation time:	15. 06. 2019 19:38

#	Modifying user name:	WinNT
#	Modification time:	15. 06. 2019 19:38

#	Program:	/corina/corina34_cracker 3.40 0067  02.08.2006

@<TRIPOS>MOLECULE
ASD01870166
  65   70    0    0    0
SMALL
NO_CHARGES


@<TRIPOS>ATOM
   1 C1            -0.0168     1.3890     0.0097 C.ar    
   2 C2             0.0021    -0.0041     0.0020 C.ar    
   3 C3             1.1787    -0.6895    -0.0125 C.ar    
   4 C4             2.3941     0.0134    -0.0203 C.ar    
   5 C5             2.3756     1.4326    -0.0130 C.ar    
   6 C6             1.1407     2.1050     0.0025 C.ar    
   7 C7             3.6272    -0.6637    -0.0358 C.ar    
   8 C8             4.7900     0.0351    -0.0436 C.ar    
   9 C9             4.7882     1.4439    -0.0361 C.ar    
  10 C10            3.5864     2.1337    -0.0214 C.ar    
  11 C11            5.8880     2.4286    -0.0415 C.2     
  12 N12            5.3952     3.6790    -0.0301 N.am    
  13 C13            3.9298     3.6021    -0.0168 C.3     
  14 C14            6.1876     4.9112    -0.0312 C.3     
  15 C15            7.0575     4.9570    -1.2890 C.3     
  16 C16            7.8851     6.2438    -1.2901 C.3     
  17 C17            8.7800     6.2758    -0.0495 C.3     
  18 C18            7.9100     6.2300     1.2082 C.3     
  19 C19            7.0825     4.9431     1.2094 C.3     
  20 C20            3.6565    -2.1704    -0.0431 C.3     
  21 C21            3.5284    -2.6685    -1.4596 C.ar    
  22 C22            4.6612    -2.8765    -2.2349 C.ar    
  23 C23            4.4997    -3.3343    -3.5304 C.ar    
  24 C24            3.2152    -3.5694    -4.0095 C.ar    
  25 N25            2.1593    -3.3584    -3.2387 N.ar    
  26 C26            2.2837    -2.9280    -1.9976 C.ar    
  27 O27            6.2217     4.9271    -2.4476 O.3     
  28 O28            7.0708     2.1485    -0.0540 O.2     
  29 N29            3.0383    -4.0296    -5.3092 N.3     
  30 C30            1.6117    -4.2118    -5.6140 C.3     
  31 C31            1.4597    -4.6608    -7.0698 C.3     
  32 O32            2.2146    -5.8580    -7.2754 O.3     
  33 C33            3.6085    -5.7161    -6.9886 C.3     
  34 C34            3.7822    -5.2779    -5.5320 C.3     
  35 H35           -0.9637     1.9083     0.0170 H       
  36 H36           -0.9306    -0.5486     0.0080 H       
  37 H37            1.1770    -1.7695    -0.0175 H       
  38 H38            1.1108     3.1846     0.0079 H       
  39 H39            5.7302    -0.4960    -0.0555 H       
  40 H40            3.5210     4.0855    -0.9040 H       
  41 H41            3.5378     4.0759     0.8832 H       
  42 H42            5.5198     5.7726    -0.0198 H       
  43 H43            7.7253     4.0956    -1.3004 H       
  44 H44            8.5048     6.2765    -2.1862 H       
  45 H45            7.2173     7.1053    -1.2787 H       
  46 H46            9.4478     5.4144    -0.0610 H       
  47 H47            9.3695     7.1926    -0.0504 H       
  48 H48            8.5476     6.2528     2.0920 H       
  49 H49            7.2422     7.0914     1.2197 H       
  50 H50            6.4627     4.9105     2.1054 H       
  51 H51            7.7503     4.0817     1.1979 H       
  52 H52            4.5991    -2.5175     0.3803 H       
  53 H53            2.8279    -2.5529     0.5529 H       
  54 H54            5.6463    -2.6848    -1.8358 H       
  55 H55            5.3592    -3.5065    -4.1612 H       
  56 H56            1.3998    -2.7670    -1.3982 H       
  57 H57            6.7071     4.9535    -3.2836 H       
  58 H58            1.1925    -4.9708    -4.9534 H       
  59 H59            1.0848    -3.2691    -5.4670 H       
  60 H60            0.4082    -4.8523    -7.2837 H       
  61 H61            1.8301    -3.8786    -7.7324 H       
  62 H62            4.1111    -6.6708    -7.1438 H       
  63 H63            4.0414    -4.9646    -7.6489 H       
  64 H64            4.8397    -5.1132    -5.3251 H       
  65 H65            3.3977    -6.0538    -4.8701 H       
@<TRIPOS>BOND
   1    1    2 ar
   2    1    6 ar
   3    1   35 1
   4    2    3 ar
   5    2   36 1
   6    3    4 ar
   7    3   37 1
   8    4    5 ar
   9    4    7 ar
  10    5    6 ar
  11    5   10 ar
  12    6   38 1
  13    7    8 ar
  14    7   20 1
  15    8    9 ar
  16    8   39 1
  17    9   10 ar
  18    9   11 1
  19   10   13 1
  20   11   12 am
  21   11   28 2
  22   12   13 1
  23   12   14 1
  24   13   40 1
  25   13   41 1
  26   14   15 1
  27   14   19 1
  28   14   42 1
  29   15   16 1
  30   15   27 1
  31   15   43 1
  32   16   17 1
  33   16   44 1
  34   16   45 1
  35   17   18 1
  36   17   46 1
  37   17   47 1
  38   18   19 1
  39   18   48 1
  40   18   49 1
  41   19   50 1
  42   19   51 1
  43   20   21 1
  44   20   52 1
  45   20   53 1
  46   21   22 ar
  47   21   26 ar
  48   22   23 ar
  49   22   54 1
  50   23   24 ar
  51   23   55 1
  52   24   25 ar
  53   24   29 1
  54   25   26 ar
  55   26   56 1
  56   27   57 1
  57   29   30 1
  58   29   34 1
  59   30   31 1
  60   30   58 1
  61   30   59 1
  62   31   32 1
  63   31   60 1
  64   31   61 1
  65   32   33 1
  66   33   34 1
  67   33   62 1
  68   33   63 1
  69   34   64 1
  70   34   65 1

#	End of record

