#	Name: ASD01410441
#	Creating user name:	WinNT
#	Creation time:	15. 06. 2019 19:17

#	Modifying user name:	WinNT
#	Modification time:	15. 06. 2019 19:17

#	Program:	/corina/corina34_cracker 3.40 0067  02.08.2006

@<TRIPOS>MOLECULE
ASD01410441
  52   57    0    0    0
SMALL
NO_CHARGES


@<TRIPOS>ATOM
   1 C1             5.2481    -0.0737    -2.8961 C.ar    
   2 C2             5.1683     0.7102    -4.0497 C.ar    
   3 C3             4.9603     2.0873    -3.9410 C.ar    
   4 C4             4.8348     2.6671    -2.6977 C.ar    
   5 C5             4.9147     1.8838    -1.5525 C.ar    
   6 C6             5.1215     0.5136    -1.6565 C.ar    
   7 O7             4.7910     2.4590    -0.3290 O.3     
   8 C8             4.5458     3.7949    -0.2736 C.ar    
   9 C9             3.2498     4.2692    -0.4572 C.ar    
  10 C10            2.9820     5.6205    -0.4041 C.ar    
  11 C11            4.0133     6.5184    -0.1653 C.ar    
  12 C12            5.3243     6.0421     0.0207 C.ar    
  13 C13            5.5843     4.6753    -0.0295 C.ar    
  14 N14            3.7953     7.8816    -0.1034 N.pl3   
  15 C15            4.8152     8.7256     0.1286 C.2     
  16 N16            6.0462     8.3335     0.3068 N.2     
  17 C17            6.3877     7.0316     0.2711 C.2     
  18 O18            7.5430     6.6814     0.4400 O.2     
  19 C19            2.4424     8.4107    -0.2927 C.3     
  20 C20            1.7867     8.6055     1.0502 C.ar    
  21 C21            2.0292     9.7576     1.7782 C.ar    
  22 C22            1.4270     9.9365     3.0118 C.ar    
  23 C23            0.5819     8.9634     3.5171 C.ar    
  24 C24            0.3387     7.8116     2.7886 C.ar    
  25 C25            0.9376     7.6347     1.5531 C.ar    
  26 F26            0.7003     6.5107     0.8421 F       
  27 F27           -0.0051     9.1375     4.7214 F       
  28 F28            2.8539    10.7073     1.2851 F       
  29 C29            5.3039     0.0849    -5.3803 C.2     
  30 O30            5.2433     0.7437    -6.5527 O.3     
  31 C31            5.4089    -0.1555    -7.5465 C.ar    
  32 C32            5.5756    -1.4080    -6.9312 C.ar    
  33 N33            5.5065    -1.1923    -5.5935 N.2     
  34 C34            5.4403    -0.0693    -8.9306 C.ar    
  35 C35            5.6367    -1.2332    -9.6563 C.ar    
  36 C36            5.7943    -2.4359    -8.9872 C.ar    
  37 N37            5.7618    -2.4968    -7.6730 N.ar    
  38 H38            5.4043    -1.1393    -2.9762 H       
  39 H39            4.8985     2.6967    -4.8305 H       
  40 H40            4.6744     3.7317    -2.6128 H       
  41 H41            5.1827    -0.0918    -0.7642 H       
  42 H42            2.4465     3.5718    -0.6434 H       
  43 H43            1.9736     5.9792    -0.5481 H       
  44 H44            6.5893     4.3063     0.1128 H       
  45 H45            4.6043     9.7840     0.1693 H       
  46 H46            2.4958     9.3670    -0.8130 H       
  47 H47            1.8566     7.7073    -0.8844 H       
  48 H48            1.6167    10.8350     3.5802 H       
  49 H49           -0.3202     7.0523     3.1830 H       
  50 H50            5.3146     0.8802    -9.4296 H       
  51 H51            5.6664    -1.2030   -10.7355 H       
  52 H52            5.9469    -3.3416    -9.5554 H       
@<TRIPOS>BOND
   1    1    2 ar
   2    1    6 ar
   3    1   38 1
   4    2    3 ar
   5    2   29 1
   6    3    4 ar
   7    3   39 1
   8    4    5 ar
   9    4   40 1
  10    5    6 ar
  11    5    7 1
  12    6   41 1
  13    7    8 1
  14    8    9 ar
  15    8   13 ar
  16    9   10 ar
  17    9   42 1
  18   10   11 ar
  19   10   43 1
  20   11   12 ar
  21   11   14 1
  22   12   13 ar
  23   12   17 1
  24   13   44 1
  25   14   15 1
  26   14   19 1
  27   15   16 2
  28   15   45 1
  29   16   17 1
  30   17   18 2
  31   19   20 1
  32   19   46 1
  33   19   47 1
  34   20   21 ar
  35   20   25 ar
  36   21   22 ar
  37   21   28 1
  38   22   23 ar
  39   22   48 1
  40   23   24 ar
  41   23   27 1
  42   24   25 ar
  43   24   49 1
  44   25   26 1
  45   29   30 1
  46   29   33 2
  47   30   31 1
  48   31   32 ar
  49   31   34 ar
  50   32   33 1
  51   32   37 ar
  52   34   35 ar
  53   34   50 1
  54   35   36 ar
  55   35   51 1
  56   36   37 ar
  57   36   52 1

#	End of record

