#	Name: ASD08780017
#	Creating user name:	WinNT
#	Creation time:	15. 06. 2019 21:19

#	Modifying user name:	WinNT
#	Modification time:	15. 06. 2019 21:19

#	Program:	/corina/corina34_cracker 3.40 0067  02.08.2006

@<TRIPOS>MOLECULE
ASD08780017
  29   29    0    0    0
SMALL
NO_CHARGES


@<TRIPOS>ATOM
   1 C1            -0.0163     1.3569     0.0104 C.ar    
   2 C2             0.0020    -0.0039    -0.0063 C.ar    
   3 C3             1.2420    -0.6913    -0.0226 C.ar    
   4 C4             2.4835     0.0935    -0.0209 C.ar    
   5 C5             2.3990     1.4745    -0.0035 C.ar    
   6 C6             1.1620     2.0937     0.0119 C.ar    
   7 S7            -1.5633     2.2004     0.0231 S.o2    
   8 O8            -1.3181     3.4962    -0.5059 O.2     
   9 O9            -2.5147     1.3020    -0.5310 O.2     
  10 N10           -1.9913     2.4156     1.6083 N.am    
  11 N11            1.2801    -2.0149    -0.0385 N.2     
  12 C12            0.2159    -2.6708    -0.0393 C.1     
  13 S13           -1.1066    -3.4859    -0.0403 S.2     
  14 O14            3.6898    -0.5238    -0.0357 O.3     
  15 C15            4.8440     0.3105    -0.1528 C.3     
  16 C16            5.2523     0.8137     1.2332 C.3     
  17 C17            5.9943    -0.4929    -0.7629 C.3     
  18 H18           -0.9248    -0.5583    -0.0068 H       
  19 H19            3.3001     2.0698    -0.0017 H       
  20 H20            1.1109     3.1724     0.0251 H       
  21 H21           -1.4118     2.0915     2.3154 H       
  22 H22           -2.8214     2.8659     1.8297 H       
  23 H23            4.6141     1.1608    -0.7948 H       
  24 H24            5.4823    -0.0365     1.8753 H       
  25 H25            6.1327     1.4501     1.1439 H       
  26 H26            4.4329     1.3861     1.6679 H       
  27 H27            5.7034    -0.8514    -1.7503 H       
  28 H28            6.8747     0.1435    -0.8523 H       
  29 H29            6.2242    -1.3432    -0.1209 H       
@<TRIPOS>BOND
   1    1    2 ar
   2    1    6 ar
   3    1    7 1
   4    2    3 ar
   5    2   18 1
   6    3    4 ar
   7    3   11 1
   8    4    5 ar
   9    4   14 1
  10    5    6 ar
  11    5   19 1
  12    6   20 1
  13    7    8 2
  14    7    9 2
  15    7   10 am
  16   10   21 1
  17   10   22 1
  18   11   12 2
  19   12   13 2
  20   14   15 1
  21   15   16 1
  22   15   17 1
  23   15   23 1
  24   16   24 1
  25   16   25 1
  26   16   26 1
  27   17   27 1
  28   17   28 1
  29   17   29 1

#	End of record

