#	Name: ASD05740034
#	Creating user name:	WinNT
#	Creation time:	15. 06. 2019 21:02

#	Modifying user name:	WinNT
#	Modification time:	15. 06. 2019 21:02

#	Program:	/corina/corina34_cracker 3.40 0067  02.08.2006

@<TRIPOS>MOLECULE
ASD05740034
  47   50    0    0    0
SMALL
NO_CHARGES


@<TRIPOS>ATOM
   1 C1            -0.3486     1.6725     0.0363 C.3     
   2 C2            -0.1605     3.0342     7.4595 C.3     
   3 C3             1.1078     4.9370     6.3821 C.2     
   4 C4             2.0946     5.4071     5.5285 C.2     
   5 C5             0.9096     3.5523     6.5333 C.2     
   6 C6             1.6955     2.6821     5.8340 C.2     
   7 C7             2.6840     3.1881     4.9794 C.2     
   8 O8             2.8622     4.5089     4.8452 O.3     
   9 C9             1.5024     1.1946     5.9797 C.3     
  10 C10            0.5992     0.6953     4.8816 C.ar    
  11 C11           -0.7584     0.5608     5.1108 C.ar    
  12 O12            3.3903     2.4173     4.3510 O.2     
  13 C13            0.2919    -0.0847     2.6321 C.ar    
  14 C14           -1.0687    -0.2228     2.8687 C.ar    
  15 C15           -1.5903     0.1032     4.1062 C.ar    
  16 N16            0.8226    -0.4138     1.3808 N.am    
  17 S17           -0.0520    -0.1168     0.0063 S.o2    
  18 O18           -1.2668    -0.8271     0.2037 O.2     
  19 O19            0.8324    -0.4580    -1.0523 O.2     
  20 C20            2.1632     6.7943     5.4904 C.2     
  21 C21            1.2857     7.4430     6.2662 C.2     
  22 S22            0.2798     6.2960     7.1353 S.3     
  23 O23            1.1916     8.7911     6.3704 O.3     
  24 C24            0.2496     9.3007     7.2001 C.ar    
  25 N25           -0.5318     8.4732     7.8751 N.ar    
  26 N26            0.1371    10.6138     7.3198 N.ar    
  27 C27           -0.7716    11.1446     8.1214 C.ar    
  28 C28           -1.6106    10.3074     8.8398 C.ar    
  29 C29           -1.4614     8.9371     8.6941 C.ar    
  30 C30            1.1272     0.3765     3.6444 C.ar    
  31 F31            2.4522     0.5135     3.4186 F       
  32 H32            0.6057     2.1991     0.0331 H       
  33 H33           -0.9252     1.9600    -0.8429 H       
  34 H34           -0.9046     1.9336     0.9368 H       
  35 H35           -0.6770     3.8743     7.9238 H       
  36 H36           -0.8745     2.4375     6.8919 H       
  37 H37            0.2961     2.4163     8.2326 H       
  38 H38            2.4684     0.6944     5.9113 H       
  39 H39            1.0499     0.9801     6.9479 H       
  40 H40           -1.1692     0.8137     6.0771 H       
  41 H41           -1.7194    -0.5844     2.0862 H       
  42 H42           -2.6497    -0.0001     4.2889 H       
  43 H43            1.7031    -0.8160     1.3181 H       
  44 H44            2.8798     7.3166     4.8739 H       
  45 H45           -0.8583    12.2170     8.2151 H       
  46 H46           -2.3613    10.7136     9.5016 H       
  47 H47           -2.0989     8.2567     9.2390 H       
@<TRIPOS>BOND
   1    1   17 1
   2    1   32 1
   3    1   33 1
   4    1   34 1
   5    2    5 1
   6    2   35 1
   7    2   36 1
   8    2   37 1
   9    3    4 2
  10    3    5 1
  11    3   22 1
  12    4   20 1
  13    4    8 1
  14    5    6 2
  15    6    7 1
  16    6    9 1
  17    7    8 1
  18    7   12 2
  19    9   10 1
  20    9   38 1
  21    9   39 1
  22   10   11 ar
  23   10   30 ar
  24   11   15 ar
  25   11   40 1
  26   13   14 ar
  27   13   16 1
  28   13   30 ar
  29   14   15 ar
  30   14   41 1
  31   15   42 1
  32   16   17 am
  33   16   43 1
  34   17   18 2
  35   17   19 2
  36   20   21 2
  37   20   44 1
  38   21   22 1
  39   21   23 1
  40   23   24 1
  41   24   26 ar
  42   24   25 ar
  43   25   29 ar
  44   26   27 ar
  45   27   28 ar
  46   27   45 1
  47   28   29 ar
  48   28   46 1
  49   29   47 1
  50   30   31 1

#	End of record

