#	Name: ASD02198474
#	Creating user name:	WinNT
#	Creation time:	15. 06. 2019 20:19

#	Modifying user name:	WinNT
#	Modification time:	15. 06. 2019 20:19

#	Program:	/corina/corina34_cracker 3.40 0067  02.08.2006

@<TRIPOS>MOLECULE
ASD02198474
  41   44    0    0    0
SMALL
NO_CHARGES


@<TRIPOS>ATOM
   1 C1             0.0835     1.0109    -0.1356 C.2     
   2 C2             0.3417    -0.3182    -0.2213 C.2     
   3 N3             1.6132    -0.7787    -0.2229 N.pl3   
   4 N4             2.6391    -0.0140    -0.1462 N.2     
   5 C5             2.5307     1.2941    -0.0590 C.2     
   6 C6             1.1865     1.8941    -0.0490 C.2     
   7 C7             1.8193    -2.1593    -0.3124 C.ar    
   8 C8             3.3042    -4.0260    -0.5606 C.ar    
   9 C9             2.2271    -4.8904    -0.4892 C.ar    
  10 C10            0.9460    -4.3927    -0.3354 C.ar    
  11 C11            0.7390    -3.0302    -0.2468 C.ar    
  12 C12            3.7351     2.1447     0.0283 C.2     
  13 N13            4.8710     1.8735     0.7381 N.pl3   
  14 N14            5.7591     2.9390     0.5452 N.2     
  15 C15            5.1957     3.8192    -0.2434 C.2     
  16 C16            3.9272     3.3580    -0.5953 C.2     
  17 C17            5.1047     0.7346     1.5191 C.ar    
  18 C18            4.1042     0.2403     2.3456 C.ar    
  19 O19            1.0294     3.1033     0.0303 O.2     
  20 C20            3.1043    -2.6624    -0.4727 C.ar    
  21 C21            6.3355     0.0939     1.4643 C.ar    
  22 C22            6.5629    -1.0289     2.2357 C.ar    
  23 C23            5.5665    -1.5153     3.0620 C.ar    
  24 C24            4.3378    -0.8829     3.1145 C.ar    
  25 C25            2.4491    -6.3778    -0.5861 C.3     
  26 F26            2.6565    -6.9027     0.6941 F       
  27 F27            1.3251    -6.9807    -1.1608 F       
  28 F28            3.5719    -6.6310    -1.3813 F       
  29 H29           -0.9303     1.3833    -0.1380 H       
  30 H30           -0.4786    -1.0175    -0.2886 H       
  31 H31            4.3034    -4.4180    -0.6808 H       
  32 H32            0.1070    -5.0705    -0.2800 H       
  33 H33           -0.2617    -2.6422    -0.1263 H       
  34 H34            5.6408     4.7474    -0.5701 H       
  35 H35            3.2203     3.8641    -1.2361 H       
  36 H36            3.1445     0.7340     2.3874 H       
  37 H37            3.9459    -1.9879    -0.5289 H       
  38 H38            7.1140     0.4730     0.8189 H       
  39 H39            7.5198    -1.5279     2.1932 H       
  40 H40            5.7466    -2.3937     3.6640 H       
  41 H41            3.5617    -1.2649     3.7611 H       
@<TRIPOS>BOND
   1    1    2 2
   2    1    6 1
   3    1   29 1
   4    2    3 1
   5    2   30 1
   6    3    4 1
   7    3    7 1
   8    4    5 2
   9    5    6 1
  10    5   12 1
  11    6   19 2
  12    7   20 ar
  13    7   11 ar
  14    8    9 ar
  15    8   20 ar
  16    8   31 1
  17    9   10 ar
  18    9   25 1
  19   10   11 ar
  20   10   32 1
  21   11   33 1
  22   12   13 1
  23   12   16 2
  24   13   14 1
  25   13   17 1
  26   14   15 2
  27   15   16 1
  28   15   34 1
  29   16   35 1
  30   17   21 ar
  31   17   18 ar
  32   18   24 ar
  33   18   36 1
  34   20   37 1
  35   21   22 ar
  36   21   38 1
  37   22   23 ar
  38   22   39 1
  39   23   24 ar
  40   23   40 1
  41   24   41 1
  42   25   26 1
  43   25   27 1
  44   25   28 1

#	End of record

