#	Name: ASD01811373
#	Creating user name:	WinNT
#	Creation time:	15. 06. 2019 19:26

#	Modifying user name:	WinNT
#	Modification time:	15. 06. 2019 19:26

#	Program:	/corina/corina34_cracker 3.40 0067  02.08.2006

@<TRIPOS>MOLECULE
ASD01811373
  30   31    0    0    0
SMALL
NO_CHARGES


@<TRIPOS>ATOM
   1 C1             0.0021    -0.0041     0.0020 C.1     
   2 C2            -0.0173     1.4278     0.0099 C.ar    
   3 C3             1.1804     2.1455     0.0023 C.ar    
   4 C4             1.1544     3.5247     0.0100 C.ar    
   5 C5            -0.0549     4.1969     0.0257 C.ar    
   6 C6            -1.2455     3.4920     0.0337 C.ar    
   7 C7            -1.2341     2.1126     0.0194 C.ar    
   8 N8             0.0175    -1.1399    -0.0042 N.1     
   9 C9            -0.6957     7.7435    -1.2431 C.3     
  10 C10           -0.8167     6.2189    -1.2064 C.3     
  11 C11           -0.0753     5.7037     0.0345 C.3     
  12 C12           -0.8188     6.2032     1.2765 C.3     
  13 C13           -1.1091     7.6698     1.1430 C.2     
  14 N14           -1.0558     8.3154     0.0474 N.2     
  15 O15           -1.4486     8.3488     2.2584 O.3     
  16 C16           -1.7212     9.7438     2.1110 C.3     
  17 H17            2.1250     1.6220    -0.0092 H       
  18 H18            2.0800     4.0810     0.0042 H       
  19 H19           -2.1859     4.0230     0.0463 H       
  20 H20           -2.1642     1.5637     0.0208 H       
  21 H21            0.3316     8.0171    -1.4839 H       
  22 H22           -1.3617     8.1388    -2.0100 H       
  23 H23           -1.8677     5.9354    -1.1503 H       
  24 H24           -0.3688     5.7934    -2.1044 H       
  25 H25            0.9457     6.0854     0.0379 H       
  26 H26           -1.7560     5.6567     1.3816 H       
  27 H27           -0.2022     6.0351     2.1595 H       
  28 H28           -0.8374    10.2473     1.7192 H       
  29 H29           -2.5533     9.8804     1.4202 H       
  30 H30           -1.9808    10.1678     3.0810 H       
@<TRIPOS>BOND
   1    1    2 1
   2    1    8 3
   3    2    3 ar
   4    2    7 ar
   5    3    4 ar
   6    3   17 1
   7    4    5 ar
   8    4   18 1
   9    5    6 ar
  10    5   11 1
  11    6    7 ar
  12    6   19 1
  13    7   20 1
  14    9   10 1
  15    9   14 1
  16    9   21 1
  17    9   22 1
  18   10   11 1
  19   10   23 1
  20   10   24 1
  21   11   12 1
  22   11   25 1
  23   12   13 1
  24   12   26 1
  25   12   27 1
  26   13   14 2
  27   13   15 1
  28   15   16 1
  29   16   28 1
  30   16   29 1
  31   16   30 1

#	End of record

