#	Name: ASD08170195
#	Creating user name:	WinNT
#	Creation time:	15. 06. 2019 21:17

#	Modifying user name:	WinNT
#	Modification time:	15. 06. 2019 21:17

#	Program:	/corina/corina34_cracker 3.40 0067  02.08.2006

@<TRIPOS>MOLECULE
ASD08170195
  61   64    0    0    0
SMALL
NO_CHARGES


@<TRIPOS>ATOM
   1 C1            -0.0184     1.5028     0.0103 C.ar    
   2 C2             0.0021    -0.0041     0.0020 C.3     
   3 C3             0.0225    -0.5140     1.4200 C.2     
   4 N4             0.0428    -1.8402     1.6590 N.am    
   5 O5             0.0206     0.2691     2.3461 O.2     
   6 C6             0.0616    -2.3108     2.9675 C.2     
   7 S7             0.0953    -3.9583     3.4358 S.3     
   8 N8             0.0621    -1.5739     4.0372 N.2     
   9 N9             0.0814    -2.1620     5.1541 N.2     
  10 C10            0.1005    -3.4568     5.1270 C.2     
  11 C11            0.1271    -4.3707     6.3250 C.3     
  12 C12           -1.3061    -4.7061     6.7425 C.3     
  13 C13           -1.2791    -5.6339     7.9588 C.3     
  14 C14           -2.7123    -5.9692     8.3764 C.3     
  15 C15           -2.6857    -6.8831     9.5744 C.2     
  16 N16           -2.6875    -6.5150    10.8162 N.2     
  17 S17           -2.6541    -8.6464     9.5374 S.3     
  18 C18           -2.6393    -8.6627    11.2504 C.2     
  19 N19           -2.6624    -7.4367    11.6786 N.2     
  20 N20           -2.6127    -9.8003    12.0500 N.am    
  21 C21           -2.6035    -9.6804    13.3924 C.2     
  22 C22           -2.5747   -10.9131    14.2588 C.3     
  23 O23           -2.6184    -8.5804    13.9030 O.2     
  24 C24            1.1693     2.2102     0.0028 C.ar    
  25 C25            1.1505     3.5924     0.0104 C.ar    
  26 C26           -0.0559     4.2672     0.0251 C.ar    
  27 C27           -1.2435     3.5598     0.0318 C.ar    
  28 C28           -1.2248     2.1776     0.0197 C.ar    
  29 C29           -2.5695   -10.5070    15.7100 C.ar    
  30 C30           -1.3554    -9.9236    17.6900 C.ar    
  31 C31           -1.3674   -10.2950    16.3616 C.ar    
  32 C32           -3.7671   -10.3424    16.3834 C.ar    
  33 C33           -3.7697    -9.9708    17.7118 C.ar    
  34 C34           -2.5601    -9.7608    18.3770 C.ar    
  35 C35           -2.5550    -9.3636    19.7998 C.2     
  36 O36           -1.5013    -9.1779    20.3748 O.2     
  37 O37           -3.7190    -9.2074    20.4597 O.3     
  38 H38           -0.8878    -0.3767    -0.5053 H       
  39 H39            0.8920    -0.3525    -0.5222 H       
  40 H40            0.0443    -2.4665     0.9183 H       
  41 H41            0.6555    -5.2892     6.0696 H       
  42 H42            0.6390    -3.8742     7.1494 H       
  43 H43           -1.8345    -3.7875     6.9979 H       
  44 H44           -1.8180    -5.2025     5.9182 H       
  45 H45           -0.7507    -6.5524     7.7035 H       
  46 H46           -0.7672    -5.1374     8.7832 H       
  47 H47           -3.2407    -5.0507     8.6318 H       
  48 H48           -3.2242    -6.4657     7.5520 H       
  49 H49           -2.6008   -10.6801    11.6415 H       
  50 H50           -3.4559   -11.5213    14.0548 H       
  51 H51           -1.6763   -11.4902    14.0398 H       
  52 H52            2.1118     1.6830    -0.0087 H       
  53 H53            2.0784     4.1450     0.0052 H       
  54 H54           -0.0705     5.3471     0.0318 H       
  55 H55           -2.1860     4.0870     0.0436 H       
  56 H56           -2.1526     1.6249     0.0249 H       
  57 H57           -0.4164    -9.7591    18.1976 H       
  58 H58           -0.4364   -10.4209    15.8289 H       
  59 H59           -4.7019   -10.5048    15.8675 H       
  60 H60           -4.7051    -9.8423    18.2361 H       
  61 H61           -3.6651    -8.9467    21.3893 H       
@<TRIPOS>BOND
   1    1    2 1
   2    1   24 ar
   3    1   28 ar
   4    2    3 1
   5    2   38 1
   6    2   39 1
   7    3    4 am
   8    3    5 2
   9    4    6 1
  10    4   40 1
  11    6    8 2
  12    6    7 1
  13    7   10 1
  14    8    9 1
  15    9   10 2
  16   10   11 1
  17   11   12 1
  18   11   41 1
  19   11   42 1
  20   12   13 1
  21   12   43 1
  22   12   44 1
  23   13   14 1
  24   13   45 1
  25   13   46 1
  26   14   15 1
  27   14   47 1
  28   14   48 1
  29   15   17 1
  30   15   16 2
  31   16   19 1
  32   17   18 1
  33   18   19 2
  34   18   20 1
  35   20   21 am
  36   20   49 1
  37   21   22 1
  38   21   23 2
  39   22   29 1
  40   22   50 1
  41   22   51 1
  42   24   25 ar
  43   24   52 1
  44   25   26 ar
  45   25   53 1
  46   26   27 ar
  47   26   54 1
  48   27   28 ar
  49   27   55 1
  50   28   56 1
  51   29   32 ar
  52   29   31 ar
  53   30   31 ar
  54   30   34 ar
  55   30   57 1
  56   31   58 1
  57   32   33 ar
  58   32   59 1
  59   33   34 ar
  60   33   60 1
  61   34   35 1
  62   35   36 2
  63   35   37 1
  64   37   61 1

#	End of record

