#	Name: ASD01028191
#	Creating user name:	WinNT
#	Creation time:	15. 06. 2019 18:56

#	Modifying user name:	WinNT
#	Modification time:	15. 06. 2019 18:56

#	Program:	/corina/corina34_cracker 3.40 0067  02.08.2006

@<TRIPOS>MOLECULE
ASD01028191
  42   44    0    0    0
SMALL
NO_CHARGES


@<TRIPOS>ATOM
   1 C1            -0.0162     1.3436     0.0094 C.2     
   2 N2             0.0021    -0.0041     0.0020 N.am    
   3 O3             1.0278     1.9654     0.0028 O.2     
   4 O4            -1.1914     2.0009     0.0186 O.3     
   5 C5            -1.2565    -0.7538     0.0100 C.3     
   6 C6             2.7491    -2.2444    -0.0362 C.2     
   7 C7             3.2432    -3.5636    -0.0480 C.2     
   8 C8             2.3650    -4.5996    -0.0452 C.2     
   9 C9             0.9733    -4.3508    -0.0311 C.2     
  10 N10            0.5096    -3.1197    -0.0196 N.2     
  11 N11            1.3865    -2.0335    -0.0221 N.pl3   
  12 N12            2.4157    -0.1400    -0.0194 N.2     
  13 N13            3.3216    -1.0540    -0.0300 N.2     
  14 C14            1.2191    -0.6848    -0.0133 C.2     
  15 S15            0.4103    -7.2184    -0.0423 S.3     
  16 N16           -1.2065    -7.7336    -0.0316 N.2     
  17 C17           -1.9568    -6.6716    -0.0193 C.2     
  18 C18           -1.3486    -5.4406    -0.0174 C.2     
  19 C19            0.0279    -5.4876    -0.0292 C.2     
  20 C20           -3.4591    -6.7892    -0.0078 C.3     
  21 C21           -1.1351     3.4518     0.0262 C.3     
  22 C22           -0.4005     3.9403    -1.2239 C.3     
  23 C23           -2.5567     4.0173     0.0360 C.3     
  24 C24           -0.3887     3.9267     1.2745 C.3     
  25 H25           -1.5785    -0.9342    -1.0156 H       
  26 H26           -1.1084    -1.7071     0.5173 H       
  27 H27           -2.0192    -0.1778     0.5342 H       
  28 H28            4.3071    -3.7489    -0.0595 H       
  29 H29            2.7305    -5.6158    -0.0542 H       
  30 H30           -1.9028    -4.5137    -0.0078 H       
  31 H31           -3.8131    -6.8232     1.0225 H       
  32 H32           -3.8949    -5.9275    -0.5135 H       
  33 H33           -3.7561    -7.7020    -0.5243 H       
  34 H34           -0.9323     3.6020    -2.1132 H       
  35 H35           -0.3583     5.0294    -1.2182 H       
  36 H36            0.6122     3.5374    -1.2309 H       
  37 H37           -3.0800     3.6694     0.9266 H       
  38 H38           -2.5144     5.1065     0.0417 H       
  39 H39           -3.0885     3.6790    -0.8533 H       
  40 H40            0.6241     3.5238     1.2675 H       
  41 H41           -0.3464     5.0159     1.2802 H       
  42 H42           -0.9120     3.5787     2.1651 H       
@<TRIPOS>BOND
   1    1    2 am
   2    1    3 2
   3    1    4 1
   4    2    5 1
   5    2   14 1
   6    4   21 1
   7    5   25 1
   8    5   26 1
   9    5   27 1
  10    6    7 1
  11    6   11 1
  12    6   13 2
  13    7    8 2
  14    7   28 1
  15    8    9 1
  16    8   29 1
  17    9   10 2
  18    9   19 1
  19   10   11 1
  20   11   14 1
  21   12   13 1
  22   12   14 2
  23   15   16 1
  24   15   19 1
  25   16   17 2
  26   17   18 1
  27   17   20 1
  28   18   19 2
  29   18   30 1
  30   20   31 1
  31   20   32 1
  32   20   33 1
  33   21   22 1
  34   21   24 1
  35   21   23 1
  36   22   34 1
  37   22   35 1
  38   22   36 1
  39   23   37 1
  40   23   38 1
  41   23   39 1
  42   24   40 1
  43   24   41 1
  44   24   42 1

#	End of record

