#	Name: ASD02030056
#	Creating user name:	WinNT
#	Creation time:	15. 06. 2019 20:14

#	Modifying user name:	WinNT
#	Modification time:	15. 06. 2019 20:14

#	Program:	/corina/corina34_cracker 3.40 0067  02.08.2006

@<TRIPOS>MOLECULE
ASD02030056
  30   31    0    0    0
SMALL
NO_CHARGES


@<TRIPOS>ATOM
   1 C1            -0.5307     1.4360     0.2639 C.ar    
   2 C2            -0.3422     0.0901     0.1768 C.ar    
   3 C3             0.9718    -0.4023     0.0766 C.ar    
   4 C4             2.0401     0.5320     0.0712 C.ar    
   5 C5             1.7366     1.8999     0.1659 C.ar    
   6 N6             0.4860     2.2874     0.2567 N.ar    
   7 C7             1.2516    -1.7733    -0.0164 C.ar    
   8 C8             2.5455    -2.1885    -0.1107 C.ar    
   9 C9             3.5954    -1.2719    -0.1162 C.ar    
  10 C10            3.3607     0.0665    -0.0274 C.ar    
  11 S11           -0.0603    -2.9495    -0.0108 S.o2    
  12 O12            0.5439    -4.2252    -0.1749 O.2     
  13 O13           -0.8907    -2.6192     1.0940 O.2     
  14 N14           -0.9646    -2.6818    -1.3720 N.am    
  15 C15           -0.3686    -2.8727    -2.6966 C.3     
  16 C16           -1.4766    -2.9385    -3.7497 C.3     
  17 N17           -0.8791    -3.1299    -5.0779 N.3     
  18 H18           -1.5370     1.8212     0.3364 H       
  19 H19           -1.1846    -0.5857     0.1848 H       
  20 H20            2.5309     2.6316     0.1644 H       
  21 H21            2.7611    -3.2444    -0.1820 H       
  22 H22            4.6119    -1.6290    -0.1917 H       
  23 H23            4.1846     0.7647    -0.0329 H       
  24 H24           -1.8889    -2.3985    -1.2923 H       
  25 H25            0.2957    -2.0379    -2.9199 H       
  26 H26            0.1997    -3.8027    -2.7087 H       
  27 H27           -2.1410    -3.7733    -3.5264 H       
  28 H28           -2.0450    -2.0085    -3.7376 H       
  29 H29           -0.2943    -3.9520    -5.0963 H       
  30 H30           -1.5910    -3.1766    -5.7914 H       
@<TRIPOS>BOND
   1    1    2 ar
   2    1    6 ar
   3    1   18 1
   4    2    3 ar
   5    2   19 1
   6    3    4 ar
   7    3    7 ar
   8    4    5 ar
   9    4   10 ar
  10    5    6 ar
  11    5   20 1
  12    7    8 ar
  13    7   11 1
  14    8    9 ar
  15    8   21 1
  16    9   10 ar
  17    9   22 1
  18   10   23 1
  19   11   12 2
  20   11   13 2
  21   11   14 am
  22   14   15 1
  23   14   24 1
  24   15   16 1
  25   15   25 1
  26   15   26 1
  27   16   17 1
  28   16   27 1
  29   16   28 1
  30   17   29 1
  31   17   30 1

#	End of record

