#	Name: ASD01884130
#	Creating user name:	WinNT
#	Creation time:	15. 06. 2019 19:47

#	Modifying user name:	WinNT
#	Modification time:	15. 06. 2019 19:47

#	Program:	/corina/corina34_cracker 3.40 0067  02.08.2006

@<TRIPOS>MOLECULE
ASD01884130
  43   47    0    0    0
SMALL
NO_CHARGES


@<TRIPOS>ATOM
   1 C1             0.0093     1.3110     0.1240 C.2     
   2 C2            -0.0240    -0.0430    -0.0713 C.2     
   3 C3            -1.2686    -0.7009    -0.1803 C.2     
   4 C4            -2.4167    -0.0012    -0.0932 C.2     
   5 N5            -2.3943     1.3492     0.1009 N.pl3   
   6 C6            -1.2007     2.0193     0.2180 C.2     
   7 N7            -1.4952     3.2981     0.3963 N.2     
   8 C8            -3.3669     2.2975     0.2254 C.2     
   9 N9            -2.7730     3.4492     0.3956 N.2     
  10 C10           -4.8542     2.0608     0.1730 C.3     
  11 C11            3.2720    -1.6400    -0.9039 C.ar    
  12 C12            2.9679    -2.2865     0.2781 C.ar    
  13 C13           -5.3752     1.7753     1.5829 C.3     
  14 C14           -6.8873     1.6231     1.7600 C.3     
  15 C15           -5.9794     0.3947     1.8467 C.3     
  16 C16            4.4454    -1.9405    -1.5734 C.ar    
  17 C17            5.3127    -2.8867    -1.0613 C.ar    
  18 C18            5.0084    -3.5337     0.1215 C.ar    
  19 C19            3.8369    -3.2340     0.7905 C.ar    
  20 C20            1.6455    -1.7725     0.7884 C.3     
  21 N21            1.1610    -0.7668    -0.1624 N.pl3   
  22 C22            2.1613    -0.6741    -1.2306 C.3     
  23 C23            1.3270     2.0326     0.2429 C.3     
  24 F24            1.7787     2.3918    -1.0315 F       
  25 F25            1.1598     3.1838     1.0200 F       
  26 F26            2.2658     1.1920     0.8506 F       
  27 H27           -1.3004    -1.7694    -0.3345 H       
  28 H28           -3.3635    -0.5139    -0.1783 H       
  29 H29           -5.3493     2.9467    -0.2248 H       
  30 H30           -5.0639     1.2072    -0.4716 H       
  31 H31           -4.8182     2.2446     2.3939 H       
  32 H32           -7.3250     1.9919     2.6876 H       
  33 H33           -7.5109     1.7264     0.8720 H       
  34 H34           -6.0058    -0.3103     1.0158 H       
  35 H35           -5.8199    -0.0447     2.8314 H       
  36 H36            4.6834    -1.4351    -2.4976 H       
  37 H37            6.2277    -3.1206    -1.5852 H       
  38 H38            5.6854    -4.2736     0.5223 H       
  39 H39            3.5995    -3.7394     1.7149 H       
  40 H40            0.9309    -2.5929     0.8546 H       
  41 H41            1.7797    -1.3183     1.7702 H       
  42 H42            2.5616     0.3388    -1.2751 H       
  43 H43            1.7064    -0.9347    -2.1863 H       
@<TRIPOS>BOND
   1    1    2 2
   2    1   23 1
   3    1    6 1
   4    2    3 1
   5    2   21 1
   6    3    4 2
   7    3   27 1
   8    4    5 1
   9    4   28 1
  10    5    6 1
  11    5    8 1
  12    6    7 2
  13    7    9 1
  14    8    9 2
  15    8   10 1
  16   10   13 1
  17   10   29 1
  18   10   30 1
  19   11   12 ar
  20   11   16 ar
  21   11   22 1
  22   12   20 1
  23   12   19 ar
  24   13   14 1
  25   13   15 1
  26   13   31 1
  27   14   15 1
  28   14   32 1
  29   14   33 1
  30   15   34 1
  31   15   35 1
  32   16   17 ar
  33   16   36 1
  34   17   18 ar
  35   17   37 1
  36   18   19 ar
  37   18   38 1
  38   19   39 1
  39   20   21 1
  40   20   40 1
  41   20   41 1
  42   21   22 1
  43   22   42 1
  44   22   43 1
  45   23   24 1
  46   23   25 1
  47   23   26 1

#	End of record

