#	Name: ASD01240026
#	Creating user name:	WinNT
#	Creation time:	15. 06. 2019 19:15

#	Modifying user name:	WinNT
#	Modification time:	15. 06. 2019 19:15

#	Program:	/corina/corina34_cracker 3.40 0067  02.08.2006

@<TRIPOS>MOLECULE
ASD01240026
  36   38    0    0    0
SMALL
NO_CHARGES


@<TRIPOS>ATOM
   1 O1            -0.0164     1.3547     0.0095 O.3     
   2 C2             0.0021    -0.0041     0.0020 C.ar    
   3 C3             0.0229    -0.7040     1.1969 C.ar    
   4 C4             0.0427    -2.0949     1.1951 C.ar    
   5 O5             0.0574    -2.7428     2.3891 O.3     
   6 C6             0.4451    -4.1174     2.3983 C.3     
   7 C7             0.1392    -4.7221     3.7444 C.ar    
   8 C8             1.0316    -5.6057     4.3219 C.ar    
   9 C9             0.7536    -6.1647     5.5601 C.ar    
  10 O10            1.6323    -7.0340     6.1275 O.3     
  11 C11           -0.4239    -5.8351     6.2206 C.ar    
  12 C12           -1.3183    -4.9459     5.6368 C.ar    
  13 C13           -1.0304    -4.3873     4.4006 C.ar    
  14 O14           -2.4720    -4.6205     6.2789 O.3     
  15 O15           -0.7005    -6.3819     7.4358 O.3     
  16 C16           -0.3489    -4.8509     1.3098 C.3     
  17 C17            0.0685    -4.2875    -0.0509 C.3     
  18 C18            0.0429    -2.7806    -0.0063 C.ar    
  19 C19            0.0205    -2.0770    -1.2054 C.ar    
  20 C20           -0.0057    -0.6922    -1.2022 C.ar    
  21 O21            0.0191    -2.7511    -2.3854 O.3     
  22 O22           -1.7481    -4.6405     1.5096 O.3     
  23 H23            0.8616     1.7600     0.0033 H       
  24 H24            0.0242    -0.1675     2.1342 H       
  25 H25            1.5125    -4.1992     2.1932 H       
  26 H26            1.9464    -5.8614     3.8079 H       
  27 H27            2.2972    -6.6113     6.6881 H       
  28 H28           -1.7247    -3.6960     3.9464 H       
  29 H29           -2.3948    -3.8525     6.8615 H       
  30 H30           -0.3693    -5.8662     8.1838 H       
  31 H31           -0.1277    -5.9175     1.3494 H       
  32 H32            1.0766    -4.6262    -0.2899 H       
  33 H33           -0.6227    -4.6395    -0.8167 H       
  34 H34           -0.0231    -0.1492    -2.1356 H       
  35 H35           -0.8645    -2.9595    -2.7182 H       
  36 H36           -2.3091    -5.0778     0.8546 H       
@<TRIPOS>BOND
   1    1    2 1
   2    1   23 1
   3    2    3 ar
   4    2   20 ar
   5    3    4 ar
   6    3   24 1
   7    4    5 1
   8    4   18 ar
   9    5    6 1
  10    6    7 1
  11    6   16 1
  12    6   25 1
  13    7    8 ar
  14    7   13 ar
  15    8    9 ar
  16    8   26 1
  17    9   10 1
  18    9   11 ar
  19   10   27 1
  20   11   12 ar
  21   11   15 1
  22   12   13 ar
  23   12   14 1
  24   13   28 1
  25   14   29 1
  26   15   30 1
  27   16   17 1
  28   16   22 1
  29   16   31 1
  30   17   18 1
  31   17   32 1
  32   17   33 1
  33   18   19 ar
  34   19   20 ar
  35   19   21 1
  36   20   34 1
  37   21   35 1
  38   22   36 1

#	End of record

