#	Name: ASD03330638
#	Creating user name:	WinNT
#	Creation time:	15. 06. 2019 20:37

#	Modifying user name:	WinNT
#	Modification time:	15. 06. 2019 20:37

#	Program:	/corina/corina34_cracker 3.40 0067  02.08.2006

@<TRIPOS>MOLECULE
ASD03330638
  64   66    0    0    0
SMALL
NO_CHARGES


@<TRIPOS>ATOM
   1 C1            -0.3268     1.1619     0.8084 C.2     
   2 N2            -0.3619    -0.1708     1.0378 N.pl3   
   3 C3             0.9801     1.5460     0.8672 C.2     
   4 N4             1.7216     0.4458     1.1128 N.2     
   5 C5             0.9244    -0.5924     1.2113 C.2     
   6 C6             1.3491    -1.9855     1.4674 C.ar    
   7 C7             1.4913     2.9176     0.6935 C.2     
   8 O8             0.7191     3.8313     0.4751 O.2     
   9 C9             3.3228     4.5222     0.6042 C.3     
  10 N10            2.8147     3.1590     0.7768 N.am    
  11 C11            3.5128     4.8107    -0.8863 C.3     
  12 C12            2.1519     4.7998    -1.5854 C.3     
  13 C13            4.1648     6.1838    -1.0609 C.3     
  14 C14            4.4116     3.7372    -1.5031 C.3     
  15 C15            4.6446     4.6593     1.3148 C.2     
  16 N16            5.1832     5.8798     1.5066 N.am    
  17 O17            5.2238     3.6714     1.7142 O.2     
  18 C18            6.5014     6.0086     2.1326 C.3     
  19 C19           -1.5745    -0.9914     1.0994 C.3     
  20 C20           -2.4696    -0.6570    -0.0979 C.3     
  21 C21           -3.3822     0.5140     0.2524 C.3     
  22 N22           -2.7103     1.4518     1.1545 N.3     
  23 C23           -1.5188     2.0385     0.5236 C.3     
  24 C24           -3.6348     2.4989     1.6092 C.3     
  25 C25            0.4932    -2.8640     2.1329 C.ar    
  26 C26            0.8922    -4.1640     2.3706 C.ar    
  27 C27            2.1536    -4.5938     1.9425 C.ar    
  28 C28            3.0040    -3.7065     1.2766 C.ar    
  29 C29            2.6046    -2.4227     1.0376 C.ar    
  30 C30            2.5856    -5.9824     2.1944 C.2     
  31 F31            0.0678    -5.0187     3.0149 F       
  32 N32            3.8003    -6.3956     1.7818 N.am    
  33 O33            1.8456    -6.7537     2.7740 O.2     
  34 H34            2.6095     5.2317     1.0236 H       
  35 H35            3.4306     2.4303     0.9510 H       
  36 H36            1.5115     5.5647    -1.1460 H       
  37 H37            2.2872     5.0054    -2.6473 H       
  38 H38            1.6873     3.8216    -1.4610 H       
  39 H39            5.1221     6.2003    -0.5400 H       
  40 H40            4.3250     6.3777    -2.1215 H       
  41 H41            3.5119     6.9515    -0.6457 H       
  42 H42            3.9471     2.7590    -1.3787 H       
  43 H43            4.5469     3.9427    -2.5650 H       
  44 H44            5.3811     3.7449    -1.0051 H       
  45 H45            4.6980     6.6729     1.2300 H       
  46 H46            6.4733     5.5733     3.1316 H       
  47 H47            7.2430     5.4854     1.5290 H       
  48 H48            6.7687     7.0630     2.2032 H       
  49 H49           -1.3024    -2.0464     1.0673 H       
  50 H50           -2.1104    -0.7805     2.0248 H       
  51 H51           -1.8475    -0.3890    -0.9519 H       
  52 H52           -3.0763    -1.5265    -0.3510 H       
  53 H53           -3.6621     1.0359    -0.6627 H       
  54 H54           -4.2820     0.1342     0.7364 H       
  55 H55           -1.3441     3.0345     0.9306 H       
  56 H56           -1.6726     2.1057    -0.5534 H       
  57 H57           -4.4697     2.0411     2.1397 H       
  58 H58           -3.1101     3.1816     2.2777 H       
  59 H59           -4.0105     3.0510     0.7477 H       
  60 H60           -0.4789    -2.5275     2.4616 H       
  61 H61            3.9773    -4.0383     0.9467 H       
  62 H62            3.2650    -1.7406     0.5228 H       
  63 H63            4.3907    -5.7804     1.3194 H       
  64 H64            4.0842    -7.3083     1.9474 H       
@<TRIPOS>BOND
   1    1    2 1
   2    1    3 2
   3    1   23 1
   4    2   19 1
   5    2    5 1
   6    3    4 1
   7    3    7 1
   8    4    5 2
   9    5    6 1
  10    6   25 ar
  11    6   29 ar
  12    7    8 2
  13    7   10 am
  14    9   10 1
  15    9   11 1
  16    9   15 1
  17    9   34 1
  18   10   35 1
  19   11   12 1
  20   11   13 1
  21   11   14 1
  22   12   36 1
  23   12   37 1
  24   12   38 1
  25   13   39 1
  26   13   40 1
  27   13   41 1
  28   14   42 1
  29   14   43 1
  30   14   44 1
  31   15   16 am
  32   15   17 2
  33   16   18 1
  34   16   45 1
  35   18   46 1
  36   18   47 1
  37   18   48 1
  38   19   20 1
  39   19   49 1
  40   19   50 1
  41   20   21 1
  42   20   51 1
  43   20   52 1
  44   21   22 1
  45   21   53 1
  46   21   54 1
  47   22   23 1
  48   22   24 1
  49   23   55 1
  50   23   56 1
  51   24   57 1
  52   24   58 1
  53   24   59 1
  54   25   26 ar
  55   25   60 1
  56   26   27 ar
  57   26   31 1
  58   27   28 ar
  59   27   30 1
  60   28   29 ar
  61   28   61 1
  62   29   62 1
  63   30   32 am
  64   30   33 2
  65   32   63 1
  66   32   64 1

#	End of record

