#	Name: ASD04590718
#	Creating user name:	WinNT
#	Creation time:	15. 06. 2019 20:51

#	Modifying user name:	WinNT
#	Modification time:	15. 06. 2019 20:51

#	Program:	/corina/corina34_cracker 3.40 0067  02.08.2006

@<TRIPOS>MOLECULE
ASD04590718
  69   75    0    0    0
SMALL
NO_CHARGES


@<TRIPOS>ATOM
   1 N1            -2.2394    -2.5269    -0.0930 N.ar    
   2 C2            -1.0893    -1.8765     0.0279 C.ar    
   3 N3             0.0785    -2.4987     0.0267 N.ar    
   4 C4             0.1410    -3.8208    -0.0978 C.ar    
   5 C5            -1.0636    -4.5409    -0.2281 C.ar    
   6 C6            -2.2671    -3.8433    -0.2215 C.ar    
   7 N7             1.1851    -4.7127    -0.1312 N.pl3   
   8 C8             0.7169    -6.0030    -0.2794 C.ar    
   9 C9            -0.6885    -5.9553    -0.3457 C.ar    
  10 N10           -1.1119    -0.4978     0.1594 N.pl3   
  11 C11           -2.3202     0.1922     0.0631 C.ar    
  12 C12            2.5994    -4.3456    -0.0251 C.3     
  13 C13            3.2310    -5.0295     1.2001 C.3     
  14 N14            1.3222    -7.1797    -0.3625 N.ar    
  15 N15            0.6670    -8.2742    -0.5012 N.ar    
  16 C16           -0.6512    -8.3200    -0.5722 C.ar    
  17 C17           -1.3889    -7.1511    -0.4961 C.ar    
  18 C18            4.3647    -5.9296     0.6668 C.3     
  19 C19            4.7439    -5.2961    -0.6949 C.3     
  20 C20            3.3714    -4.8540    -1.2602 C.3     
  21 N21           -3.4223    -0.4616    -0.2663 N.ar    
  22 C22           -4.5871     0.1500    -0.3688 C.ar    
  23 C23           -4.6959     1.5121    -0.1326 C.ar    
  24 C24           -3.5558     2.2344     0.2169 C.ar    
  25 C25           -2.3538     1.5585     0.3201 C.ar    
  26 N26           -5.9350     2.1540    -0.2441 N.3     
  27 C27           -6.9883     1.2028    -0.6210 C.3     
  28 C28           -8.2939     1.9598    -0.8752 C.3     
  29 C29           -8.6944     2.7172     0.3938 C.3     
  30 C30           -7.5602     3.6658     0.7920 C.3     
  31 C31           -6.2760     2.8594     0.9979 C.3     
  32 N32           -9.9157     3.4925     0.1380 N.3     
  33 C33          -11.0410     2.6058    -0.2107 C.3     
  34 C34          -12.1759     2.8903     0.7955 C.3     
  35 C35          -11.8435     4.3183     1.3027 C.3     
  36 C36          -10.2949     4.2903     1.3235 C.3     
  37 H37           -3.2067    -4.3667    -0.3191 H       
  38 H38           -0.2874    -0.0122     0.3184 H       
  39 H39            2.6988    -3.2634     0.0588 H       
  40 H40            3.6376    -4.2792     1.8782 H       
  41 H41            2.4853    -5.6345     1.7158 H       
  42 H42           -1.1533    -9.2689    -0.6896 H       
  43 H43           -2.4673    -7.1651    -0.5520 H       
  44 H44            5.2170    -5.9124     1.3460 H       
  45 H45            4.0079    -6.9499     0.5266 H       
  46 H46            5.3980    -4.4360    -0.5519 H       
  47 H47            5.2110    -6.0338    -1.3474 H       
  48 H48            2.8541    -5.7006    -1.7116 H       
  49 H49            3.4987    -4.0519    -1.9872 H       
  50 H50           -5.4656    -0.4166    -0.6400 H       
  51 H51           -3.6108     3.2963     0.4063 H       
  52 H52           -1.4509     2.0866     0.5889 H       
  53 H53           -6.6929     0.6739    -1.5271 H       
  54 H54           -7.1357     0.4855     0.1864 H       
  55 H55           -8.1511     2.6676    -1.6917 H       
  56 H56           -9.0794     1.2519    -1.1396 H       
  57 H57           -8.8751     2.0067     1.2004 H       
  58 H58           -7.4059     4.4004     0.0017 H       
  59 H59           -7.8216     4.1767     1.7187 H       
  60 H60           -6.4267     2.1343     1.7977 H       
  61 H61           -5.4631     3.5336     1.2676 H       
  62 H62          -11.3814     2.8197    -1.2238 H       
  63 H63          -10.7298     1.5640    -0.1339 H       
  64 H64          -13.1454     2.8741     0.2976 H       
  65 H65          -12.1513     2.1741     1.6168 H       
  66 H66          -12.2111     5.0745     0.6091 H       
  67 H67          -12.2446     4.4804     2.3032 H       
  68 H68           -9.9362     3.8108     2.2343 H       
  69 H69           -9.8960     5.3016     1.2437 H       
@<TRIPOS>BOND
   1    1    2 ar
   2    1    6 ar
   3    2    3 ar
   4    2   10 1
   5    3    4 ar
   6    4    5 ar
   7    4    7 1
   8    5    6 ar
   9    5    9 1
  10    6   37 1
  11    7    8 1
  12    7   12 1
  13    8    9 ar
  14    8   14 ar
  15    9   17 ar
  16   10   11 1
  17   10   38 1
  18   11   21 ar
  19   11   25 ar
  20   12   13 1
  21   12   20 1
  22   12   39 1
  23   13   18 1
  24   13   40 1
  25   13   41 1
  26   14   15 ar
  27   15   16 ar
  28   16   17 ar
  29   16   42 1
  30   17   43 1
  31   18   19 1
  32   18   44 1
  33   18   45 1
  34   19   20 1
  35   19   46 1
  36   19   47 1
  37   20   48 1
  38   20   49 1
  39   21   22 ar
  40   22   23 ar
  41   22   50 1
  42   23   24 ar
  43   23   26 1
  44   24   25 ar
  45   24   51 1
  46   25   52 1
  47   26   27 1
  48   26   31 1
  49   27   28 1
  50   27   53 1
  51   27   54 1
  52   28   29 1
  53   28   55 1
  54   28   56 1
  55   29   30 1
  56   29   32 1
  57   29   57 1
  58   30   31 1
  59   30   58 1
  60   30   59 1
  61   31   60 1
  62   31   61 1
  63   32   33 1
  64   32   36 1
  65   33   34 1
  66   33   62 1
  67   33   63 1
  68   34   35 1
  69   34   64 1
  70   34   65 1
  71   35   36 1
  72   35   66 1
  73   35   67 1
  74   36   68 1
  75   36   69 1

#	End of record

