#	Name: ASD03092791
#	Creating user name:	WinNT
#	Creation time:	15. 06. 2019 20:33

#	Modifying user name:	WinNT
#	Modification time:	15. 06. 2019 20:33

#	Program:	/corina/corina34_cracker 3.40 0067  02.08.2006

@<TRIPOS>MOLECULE
ASD03092791
  45   47    0    0    0
SMALL
NO_CHARGES


@<TRIPOS>ATOM
   1 C1            -0.0374     1.5112     0.0392 C.3     
   2 C2             0.0205    -0.0177     0.0378 C.3     
   3 C3             0.6670    -0.4947    -1.2372 C.2     
   4 O4             1.0450     0.3107    -2.0650 O.2     
   5 C5             0.8328    -1.8723    -1.4691 C.2     
   6 S6             0.3318    -3.1525    -0.3732 S.3     
   7 C7             0.9269    -4.3859    -1.4748 C.2     
   8 C8             1.4605    -3.8042    -2.5851 C.2     
   9 C9             2.0538    -4.6048    -3.7156 C.3     
  10 C10            1.4099    -2.4278    -2.5972 C.2     
  11 C11            1.9318    -1.6129    -3.7186 C.ar    
  12 C12            1.3315    -1.6855    -4.9756 C.ar    
  13 C13            1.8223    -0.9240    -6.0163 C.ar    
  14 C14            2.9075    -0.0897    -5.8150 C.ar    
  15 C15            3.5074    -0.0138    -4.5707 C.ar    
  16 C16            3.0219    -0.7657    -3.5205 C.ar    
  17 S17            3.5284     0.8796    -7.1490 S.o2    
  18 N18            2.7224     2.3259    -7.1207 N.am    
  19 O19            4.8841     1.1695    -6.8373 O.2     
  20 O20            3.1292     0.2211    -8.3433 O.2     
  21 C21            0.8588    -5.8419    -1.2318 C.ar    
  22 C22            1.2603    -6.3667    -0.0019 C.ar    
  23 C23            1.1940    -7.7264     0.2191 C.ar    
  24 C24            0.7308    -8.5708    -0.7761 C.ar    
  25 Cl25           0.6503   -10.2812    -0.4904 Cl      
  26 C26            0.3312    -8.0562    -1.9982 C.ar    
  27 C27            0.3874    -6.6976    -2.2291 C.ar    
  28 H28            0.9736     1.9131    -0.0279 H       
  29 H29           -0.6220     1.8535    -0.8147 H       
  30 H30           -0.5050     1.8562     0.9614 H       
  31 H31            0.6050    -0.3600     0.8917 H       
  32 H32           -0.9905    -0.4196     0.1050 H       
  33 H33            1.2677    -4.8761    -4.4203 H       
  34 H34            2.8093    -4.0077    -4.2263 H       
  35 H35            2.5135    -5.5096    -3.3180 H       
  36 H36            0.4846    -2.3366    -5.1340 H       
  37 H37            1.3587    -0.9795    -6.9901 H       
  38 H38            4.3547     0.6388    -4.4198 H       
  39 H39            3.4880    -0.7019    -2.5484 H       
  40 H40            3.1594     3.1310    -7.4398 H       
  41 H41            1.8133     2.3681    -6.7849 H       
  42 H42            1.6223    -5.7092     0.7747 H       
  43 H43            1.5042    -8.1336     1.1701 H       
  44 H44           -0.0291    -8.7196    -2.7705 H       
  45 H45            0.0716    -6.2970    -3.1811 H       
@<TRIPOS>BOND
   1    1    2 1
   2    1   28 1
   3    1   29 1
   4    1   30 1
   5    2    3 1
   6    2   31 1
   7    2   32 1
   8    3    4 2
   9    3    5 1
  10    5   10 2
  11    5    6 1
  12    6    7 1
  13    7    8 2
  14    7   21 1
  15    8    9 1
  16    8   10 1
  17    9   33 1
  18    9   34 1
  19    9   35 1
  20   10   11 1
  21   11   16 ar
  22   11   12 ar
  23   12   13 ar
  24   12   36 1
  25   13   14 ar
  26   13   37 1
  27   14   15 ar
  28   14   17 1
  29   15   16 ar
  30   15   38 1
  31   16   39 1
  32   17   18 am
  33   17   19 2
  34   17   20 2
  35   18   40 1
  36   18   41 1
  37   21   27 ar
  38   21   22 ar
  39   22   23 ar
  40   22   42 1
  41   23   24 ar
  42   23   43 1
  43   24   25 1
  44   24   26 ar
  45   26   27 ar
  46   26   44 1
  47   27   45 1

#	End of record

