#	Name: ASD01912367
#	Creating user name:	WinNT
#	Creation time:	15. 06. 2019 19:59

#	Modifying user name:	WinNT
#	Modification time:	15. 06. 2019 19:59

#	Program:	/corina/corina34_cracker 3.40 0067  02.08.2006

@<TRIPOS>MOLECULE
ASD01912367
  48   51    0    0    0
SMALL
NO_CHARGES


@<TRIPOS>ATOM
   1 C1             0.0733     1.3169     0.0173 C.ar    
   2 C2             0.0993    -0.0653    -0.0314 C.ar    
   3 C3             1.3193    -0.7223    -0.1179 C.ar    
   4 C4             2.4766     0.0343    -0.1527 C.ar    
   5 C5             2.3780     1.4274    -0.0999 C.ar    
   6 N6             1.1883     2.0167    -0.0173 N.ar    
   7 C7             3.5661     2.2260    -0.1348 C.1     
   8 C8             4.5402     2.8807    -0.1635 C.1     
   9 C9             5.7283     3.6794    -0.1985 C.2     
  10 N10            5.4140     7.5559    -1.1622 N.am    
  11 C11            6.7230     6.9053    -1.3038 C.3     
  12 C12            6.8830     5.8691    -0.1841 C.3     
  13 C13            5.6397     5.0078    -0.1483 C.2     
  14 C14            4.2934     5.6916    -0.0538 C.3     
  15 C15            4.1983     6.7322    -1.1768 C.3     
  16 C16            5.3297     8.8930    -1.0150 C.2     
  17 O17            4.2426     9.4370    -1.0136 O.2     
  18 N18            8.6218    10.1979    -0.5957 N.pl3   
  19 N19            7.7832     9.2315    -0.7083 N.2     
  20 C20            6.5586     9.6975    -0.8553 C.2     
  21 C21            6.6380    11.1064    -0.8324 C.2     
  22 C22            7.9669    11.3936    -0.6656 C.2     
  23 C23            8.5725    12.7345    -0.5783 C.2     
  24 C24            9.8884    12.9863    -0.4139 C.2     
  25 C25           10.2161    14.3249    -0.3609 C.2     
  26 C26            9.1844    15.1659    -0.4800 C.2     
  27 S27            7.6937    14.2547    -0.6799 S.3     
  28 C28           -1.2501     2.0324     0.1048 C.3     
  29 H29           -0.8217    -0.6286    -0.0021 H       
  30 H30            1.3637    -1.8007    -0.1568 H       
  31 H31            3.4423    -0.4445    -0.2194 H       
  32 H32            6.6961     3.2048    -0.2655 H       
  33 H33            6.7813     6.4087    -2.2723 H       
  34 H34            7.5127     7.6525    -1.2258 H       
  35 H35            7.7553     5.2464    -0.3823 H       
  36 H36            7.0045     6.3780     0.7722 H       
  37 H37            3.4986     4.9545    -0.1682 H       
  38 H38            4.1999     6.1857     0.9133 H       
  39 H39            3.3259     7.3654    -1.0152 H       
  40 H40            4.1117     6.2256    -2.1380 H       
  41 H41            9.5786    10.0935    -0.4748 H       
  42 H42            5.8235    11.8093    -0.9271 H       
  43 H43           10.6259    12.2019    -0.3301 H       
  44 H44           11.2320    14.6683    -0.2322 H       
  45 H45            9.2560    16.2434    -0.4610 H       
  46 H46           -1.5204     2.1696     1.1518 H       
  47 H47           -1.1701     3.0052    -0.3803 H       
  48 H48           -2.0172     1.4397    -0.3937 H       
@<TRIPOS>BOND
   1    1    2 ar
   2    1    6 ar
   3    1   28 1
   4    2    3 ar
   5    2   29 1
   6    3    4 ar
   7    3   30 1
   8    4    5 ar
   9    4   31 1
  10    5    6 ar
  11    5    7 1
  12    7    8 3
  13    8    9 1
  14    9   13 2
  15    9   32 1
  16   10   11 1
  17   10   15 1
  18   10   16 am
  19   11   12 1
  20   11   33 1
  21   11   34 1
  22   12   13 1
  23   12   35 1
  24   12   36 1
  25   13   14 1
  26   14   15 1
  27   14   37 1
  28   14   38 1
  29   15   39 1
  30   15   40 1
  31   16   17 2
  32   16   20 1
  33   18   19 1
  34   18   22 1
  35   18   41 1
  36   19   20 2
  37   20   21 1
  38   21   22 2
  39   21   42 1
  40   22   23 1
  41   23   24 2
  42   23   27 1
  43   24   25 1
  44   24   43 1
  45   25   26 2
  46   25   44 1
  47   26   27 1
  48   26   45 1
  49   28   46 1
  50   28   47 1
  51   28   48 1

#	End of record

