#	Name: ASD01881717
#	Creating user name:	WinNT
#	Creation time:	15. 06. 2019 19:43

#	Modifying user name:	WinNT
#	Modification time:	15. 06. 2019 19:43

#	Program:	/corina/corina34_cracker 3.40 0067  02.08.2006

@<TRIPOS>MOLECULE
ASD01881717
  58   61    0    0    0
SMALL
NO_CHARGES


@<TRIPOS>ATOM
   1 N1             0.5968    -0.1414     0.1263 N.pl3   
   2 N2             0.7006    -1.3481     0.5652 N.2     
   3 N3             1.9246    -1.6661     0.8019 N.2     
   4 C4             2.7206    -0.6176     0.5101 C.ar    
   5 C5             1.8579     0.4005     0.0615 C.ar    
   6 C6             4.0966    -0.3805     0.5655 C.ar    
   7 C7             4.5900     0.8500     0.1790 C.ar    
   8 C8             3.7261     1.8492    -0.2631 C.ar    
   9 C9             2.3782     1.6295    -0.3226 C.ar    
  10 O10            5.9279     1.0879     0.2307 O.3     
  11 C11            6.3733     2.3812    -0.1830 C.3     
  12 N12           10.2308     3.7943     0.9969 N.3     
  13 C13            9.9026     3.8986    -0.4306 C.3     
  14 C14            8.3867     3.7991    -0.6154 C.3     
  15 C15            7.8960     2.4608    -0.0563 C.3     
  16 C16            8.2929     2.3566     1.4189 C.3     
  17 C17            9.8115     2.4979     1.5448 C.3     
  18 C18           11.6636     4.0239     1.2258 C.3     
  19 C19           11.9208     5.5238     1.3838 C.3     
  20 C20           11.0203     6.0823     2.4874 C.3     
  21 C21           13.3868     5.7533     1.7568 C.3     
  22 C22           11.6127     6.2358     0.0651 C.3     
  23 C23           -0.6490     0.5339    -0.2452 C.3     
  24 C24           -1.2258     1.2492     0.9782 C.3     
  25 C25           -2.4703     2.1144     0.7691 C.3     
  26 C26           -2.5838     0.7745     1.4990 C.3     
  27 Br27           5.2735    -1.7335     1.1655 Br      
  28 H28            4.1252     2.8071    -0.5621 H       
  29 H29            1.7181     2.4117    -0.6673 H       
  30 H30            6.0858     2.5497    -1.2208 H       
  31 H31            5.9158     3.1424     0.4490 H       
  32 H32           10.2532     4.8565    -0.8147 H       
  33 H33           10.3888     3.0892    -0.9751 H       
  34 H34            7.9007     4.6164    -0.0824 H       
  35 H35            8.1446     3.8610    -1.6764 H       
  36 H36            8.3513     1.6435    -0.6155 H       
  37 H37            7.8054     3.1511     1.9839 H       
  38 H38            7.9837     1.3879     1.8114 H       
  39 H39           10.2981     1.6951     0.9910 H       
  40 H40           10.0959     2.4385     2.5953 H       
  41 H41           11.9745     3.5045     2.1323 H       
  42 H42           12.2325     3.6451     0.3767 H       
  43 H43           11.1692     5.5092     3.4026 H       
  44 H44           11.2723     7.1273     2.6680 H       
  45 H45            9.9778     6.0082     2.1780 H       
  46 H46           14.0284     5.3555     0.9706 H       
  47 H47           13.5701     6.8219     1.8694 H       
  48 H48           13.6063     5.2461     2.6963 H       
  49 H49           10.5334     6.2773    -0.0818 H       
  50 H50           12.0144     7.2486     0.0964 H       
  51 H51           12.0707     5.6886    -0.7589 H       
  52 H52           -0.4471     1.2625    -1.0304 H       
  53 H53           -1.3669    -0.2017    -0.6079 H       
  54 H54           -0.4951     1.5878     1.7127 H       
  55 H55           -2.5585     3.0219     1.3663 H       
  56 H56           -2.8781     2.1740    -0.2400 H       
  57 H57           -3.0664    -0.0474     0.9701 H       
  58 H58           -2.7468     0.8005     2.5764 H       
@<TRIPOS>BOND
   1    1    2 1
   2    1    5 1
   3    1   23 1
   4    2    3 2
   5    3    4 1
   6    4    5 ar
   7    4    6 ar
   8    5    9 ar
   9    6    7 ar
  10    6   27 1
  11    7    8 ar
  12    7   10 1
  13    8    9 ar
  14    8   28 1
  15    9   29 1
  16   10   11 1
  17   11   15 1
  18   11   30 1
  19   11   31 1
  20   12   13 1
  21   12   17 1
  22   12   18 1
  23   13   14 1
  24   13   32 1
  25   13   33 1
  26   14   15 1
  27   14   34 1
  28   14   35 1
  29   15   16 1
  30   15   36 1
  31   16   17 1
  32   16   37 1
  33   16   38 1
  34   17   39 1
  35   17   40 1
  36   18   19 1
  37   18   41 1
  38   18   42 1
  39   19   20 1
  40   19   21 1
  41   19   22 1
  42   20   43 1
  43   20   44 1
  44   20   45 1
  45   21   46 1
  46   21   47 1
  47   21   48 1
  48   22   49 1
  49   22   50 1
  50   22   51 1
  51   23   24 1
  52   23   52 1
  53   23   53 1
  54   24   25 1
  55   24   26 1
  56   24   54 1
  57   25   26 1
  58   25   55 1
  59   25   56 1
  60   26   57 1
  61   26   58 1

#	End of record

