#	Name: ASD01940248
#	Creating user name:	WinNT
#	Creation time:	15. 06. 2019 20:12

#	Modifying user name:	WinNT
#	Modification time:	15. 06. 2019 20:12

#	Program:	/corina/corina34_cracker 3.40 0067  02.08.2006

@<TRIPOS>MOLECULE
ASD01940248
  26   27    0    0    0
SMALL
NO_CHARGES


@<TRIPOS>ATOM
   1 C1            -0.0391     1.3576     0.1098 C.ar    
   2 C2             0.1351     0.1913    -0.6342 C.ar    
   3 C3             1.3261    -0.5130    -0.5456 C.ar    
   4 C4             2.3392    -0.0596     0.2798 C.ar    
   5 C5             2.1686     1.0975     1.0198 C.ar    
   6 C6             0.9813     1.8080     0.9362 C.ar    
   7 N7            -1.2390     2.0763     0.0192 N.pl3   
   8 N8            -0.8917    -0.2683    -1.4697 N.pl3   
   9 C9            -1.2895     3.4087     0.4409 C.ar    
  10 C10           -0.6399     4.3972    -0.2919 C.ar    
  11 C11           -0.6928     5.7130     0.1281 C.ar    
  12 C12           -1.3907     6.0465     1.2757 C.ar    
  13 C13           -2.0366     5.0656     2.0057 C.ar    
  14 C14           -1.9927     3.7490     1.5885 C.ar    
  15 I15           -1.4683     8.0421     1.9088 I       
  16 F16            0.0417     4.0714    -1.4119 F       
  17 F17            0.8173     2.9378     1.6586 F       
  18 F18            3.1612     1.5355     1.8247 F       
  19 H19            1.4627    -1.4165    -1.1212 H       
  20 H20            3.2658    -0.6103     0.3474 H       
  21 H21           -2.0343     1.6495    -0.3360 H       
  22 H22           -1.7246     0.2250    -1.5308 H       
  23 H23           -0.7695    -1.0798    -1.9869 H       
  24 H24           -0.1888     6.4813    -0.4394 H       
  25 H25           -2.5797     5.3295     2.9011 H       
  26 H26           -2.5016     2.9847     2.1570 H       
@<TRIPOS>BOND
   1    1    2 ar
   2    1    6 ar
   3    1    7 1
   4    2    3 ar
   5    2    8 1
   6    3    4 ar
   7    3   19 1
   8    4    5 ar
   9    4   20 1
  10    5    6 ar
  11    5   18 1
  12    6   17 1
  13    7    9 1
  14    7   21 1
  15    8   22 1
  16    8   23 1
  17    9   10 ar
  18    9   14 ar
  19   10   11 ar
  20   10   16 1
  21   11   12 ar
  22   11   24 1
  23   12   13 ar
  24   12   15 1
  25   13   14 ar
  26   13   25 1
  27   14   26 1

#	End of record

