#	Name: ASD01880936
#	Creating user name:	WinNT
#	Creation time:	15. 06. 2019 19:41

#	Modifying user name:	WinNT
#	Modification time:	15. 06. 2019 19:41

#	Program:	/corina/corina34_cracker 3.40 0067  02.08.2006

@<TRIPOS>MOLECULE
ASD01880936
  37   39    0    0    0
SMALL
NO_CHARGES


@<TRIPOS>ATOM
   1 N1            -0.0158     1.3133     0.0093 N.ar    
   2 C2             0.0021    -0.0041     0.0020 C.ar    
   3 N3             1.1310    -0.6839    -0.0124 N.ar    
   4 C4             2.3020    -0.0629    -0.0203 C.ar    
   5 C5             2.3325     1.3179    -0.0131 C.ar    
   6 C6             1.1186     2.0075     0.0022 C.ar    
   7 C7             3.6432     2.0616    -0.0217 C.3     
   8 O8             4.7223     1.1249    -0.0370 O.3     
   9 C9             5.9802     1.6342    -0.0463 C.ar    
  10 C10            7.0769     0.7772    -0.0613 C.ar    
  11 C11            8.3489     1.2924    -0.0712 C.ar    
  12 C12            8.5522     2.6767    -0.0661 C.ar    
  13 C13            7.4469     3.5341    -0.0510 C.ar    
  14 C14            6.1715     3.0100    -0.0465 C.ar    
  15 C15            9.7188     0.6612    -0.0883 C.3     
  16 N16           10.6803     1.7697    -0.0923 N.am    
  17 C17           10.0026     2.9303    -0.0795 C.2     
  18 O18           10.5145     4.0332    -0.0794 O.2     
  19 Cl19           7.6805     5.2543    -0.0440 Cl      
  20 N20            1.0960     3.3927     0.0094 N.pl3   
  21 C21           12.6316     1.5941    -1.5561 C.3     
  22 C22           12.1389     1.6338    -0.1082 C.3     
  23 H23           -0.9345    -0.5418     0.0084 H       
  24 H24            3.2212    -0.6298    -0.0317 H       
  25 H25            3.6972     2.6926    -0.9088 H       
  26 H26            3.7142     2.6830     0.8710 H       
  27 H27            6.9270    -0.2923    -0.0649 H       
  28 H28            5.3180     3.6718    -0.0352 H       
  29 H29            9.8593     0.0466     0.8009 H       
  30 H30            9.8412     0.0557    -0.9863 H       
  31 H31            1.9280     3.8913     0.0038 H       
  32 H32            0.2482     3.8639     0.0200 H       
  33 H33           13.7169     1.4930    -1.5679 H       
  34 H34           12.1819     0.7445    -2.0699 H       
  35 H35           12.3472     2.5167    -2.0621 H       
  36 H36           12.5886     2.4834     0.4055 H       
  37 H37           12.4233     0.7112     0.3978 H       
@<TRIPOS>BOND
   1    1    2 ar
   2    1    6 ar
   3    2    3 ar
   4    2   23 1
   5    3    4 ar
   6    4    5 ar
   7    4   24 1
   8    5    6 ar
   9    5    7 1
  10    6   20 1
  11    7    8 1
  12    7   25 1
  13    7   26 1
  14    8    9 1
  15    9   10 ar
  16    9   14 ar
  17   10   11 ar
  18   10   27 1
  19   11   12 ar
  20   11   15 1
  21   12   13 ar
  22   12   17 1
  23   13   14 ar
  24   13   19 1
  25   14   28 1
  26   15   16 1
  27   15   29 1
  28   15   30 1
  29   16   17 am
  30   16   22 1
  31   17   18 2
  32   20   31 1
  33   20   32 1
  34   21   22 1
  35   21   33 1
  36   21   34 1
  37   21   35 1
  38   22   36 1
  39   22   37 1

#	End of record

