#	Name: ASD01914859
#	Creating user name:	WinNT
#	Creation time:	15. 06. 2019 20:04

#	Modifying user name:	WinNT
#	Modification time:	15. 06. 2019 20:04

#	Program:	/corina/corina34_cracker 3.40 0067  02.08.2006

@<TRIPOS>MOLECULE
ASD01914859
  31   32    0    0    0
SMALL
NO_CHARGES


@<TRIPOS>ATOM
   1 C1            -0.0168     1.3890     0.0097 C.ar    
   2 C2             0.0021    -0.0041     0.0020 C.ar    
   3 C3             1.2338    -0.6631    -0.0133 C.ar    
   4 C4             2.3879     0.1018    -0.0202 C.ar    
   5 C5             2.2854     1.4807    -0.0118 C.ar    
   6 N6             1.1077     2.0749     0.0026 N.ar    
   7 N7            -2.7326    -2.4183     0.0733 N.pl3   
   8 N8            -1.3726    -2.0843     0.0978 N.2     
   9 C9            -1.2660    -0.7755     0.0104 C.2     
  10 C10           -2.5620    -0.2340    -0.0728 C.2     
  11 C11           -3.4469    -1.2664    -0.0320 C.2     
  12 S12           -5.2025    -1.1344    -0.1023 S.3     
  13 C13           -5.7460    -2.8620     0.0001 C.3     
  14 C14           -7.2742    -2.9196    -0.0490 C.3     
  15 C15           -7.7326    -4.3767     0.0375 C.3     
  16 C16           -9.2608    -4.4344    -0.0117 C.3     
  17 H17           -0.9621     1.9113     0.0170 H       
  18 H18            1.2845    -1.7419    -0.0192 H       
  19 H19            3.3577    -0.3734    -0.0316 H       
  20 H20            3.1835     2.0805    -0.0167 H       
  21 H21           -3.1002    -3.3148     0.1192 H       
  22 H22           -2.8099     0.8140    -0.1545 H       
  23 H23           -5.3342    -3.4228    -0.8388 H       
  24 H24           -5.3959    -3.2982     0.9357 H       
  25 H25           -7.6861    -2.3587     0.7900 H       
  26 H26           -7.6243    -2.4834    -0.9845 H       
  27 H27           -7.3207    -4.9376    -0.8015 H       
  28 H28           -7.3825    -4.8129     0.9730 H       
  29 H29           -9.6726    -3.8735     0.8273 H       
  30 H30           -9.6109    -3.9982    -0.9472 H       
  31 H31           -9.5874    -5.4725     0.0499 H       
@<TRIPOS>BOND
   1    1    2 ar
   2    1    6 ar
   3    1   17 1
   4    2    3 ar
   5    2    9 1
   6    3    4 ar
   7    3   18 1
   8    4    5 ar
   9    4   19 1
  10    5    6 ar
  11    5   20 1
  12    7    8 1
  13    7   11 1
  14    7   21 1
  15    8    9 2
  16    9   10 1
  17   10   11 2
  18   10   22 1
  19   11   12 1
  20   12   13 1
  21   13   14 1
  22   13   23 1
  23   13   24 1
  24   14   15 1
  25   14   25 1
  26   14   26 1
  27   15   16 1
  28   15   27 1
  29   15   28 1
  30   16   29 1
  31   16   30 1
  32   16   31 1

#	End of record

