#	Name: ASD01230181
#	Creating user name:	WinNT
#	Creation time:	15. 06. 2019 19:11

#	Modifying user name:	WinNT
#	Modification time:	15. 06. 2019 19:11

#	Program:	/corina/corina34_cracker 3.40 0067  02.08.2006

@<TRIPOS>MOLECULE
ASD01230181
  15   15    0    0    0
SMALL
NO_CHARGES


@<TRIPOS>ATOM
   1 C1            -0.0173     1.4248     0.0099 C.3     
   2 O2             0.0021    -0.0041     0.0020 O.3     
   3 C3             1.6410     3.3086     0.0042 C.ar    
   4 C4             1.3965     1.9464    -0.0008 C.ar    
   5 C5             2.4683     1.0683    -0.0153 C.ar    
   6 C6             3.7522     1.5933    -0.0243 C.ar    
   7 C7             3.9195     2.9646    -0.0186 C.ar    
   8 N8             2.8765     3.7719    -0.0043 N.ar    
   9 Cl9            0.3075     4.4200     0.0150 Cl      
  10 H10           -0.5445     1.7859    -0.8732 H       
  11 H11           -0.5275     1.7763     0.9067 H       
  12 H12           -0.8759    -0.4094     0.0082 H       
  13 H13            2.3079     0.0003    -0.0191 H       
  14 H14            4.6106     0.9380    -0.0353 H       
  15 H15            4.9162     3.3806    -0.0255 H       
@<TRIPOS>BOND
   1    1    2 1
   2    1    4 1
   3    1   10 1
   4    1   11 1
   5    2   12 1
   6    3    4 ar
   7    3    8 ar
   8    3    9 1
   9    4    5 ar
  10    5    6 ar
  11    5   13 1
  12    6    7 ar
  13    6   14 1
  14    7    8 ar
  15    7   15 1

#	End of record

