#	Name: ASD01148721
#	Creating user name:	WinNT
#	Creation time:	15. 06. 2019 19:03

#	Modifying user name:	WinNT
#	Modification time:	15. 06. 2019 19:03

#	Program:	/corina/corina34_cracker 3.40 0067  02.08.2006

@<TRIPOS>MOLECULE
ASD01148721
  68   72    0    0    0
SMALL
NO_CHARGES


@<TRIPOS>ATOM
   1 N1            -0.0159     1.3409     0.0807 N.pl3   
   2 C2             0.0026     0.0049    -0.1115 C.2     
   3 C3             1.3183    -0.4069    -0.1550 C.2     
   4 C4             2.1211     0.7507     0.0213 C.2     
   5 C5             1.2765     1.8045     0.1629 C.2     
   6 C6             1.7986    -1.7845    -0.3469 C.2     
   7 O7             1.0020    -2.6919    -0.4864 O.2     
   8 O8             3.1218    -2.0401    -0.3680 O.3     
   9 C9            -1.2062    -0.8838    -0.2534 C.3     
  10 C10           -1.1690     2.1312     0.1754 C.ar    
  11 C11           -2.0123     2.0031     1.2713 C.ar    
  12 C12           -3.1478     2.7837     1.3620 C.ar    
  13 C13           -3.4458     3.6921     0.3626 C.ar    
  14 C14           -2.6082     3.8220    -0.7297 C.ar    
  15 C15           -1.4678     3.0480    -0.8234 C.ar    
  16 S16           -4.2183     2.6219     2.7521 S.o2    
  17 O17           -5.4878     3.0371     2.2669 O.2     
  18 O18           -4.0063     1.2917     3.2047 O.2     
  19 C19           -3.5768     3.8148     3.9587 C.3     
  20 C20            1.6781     3.2118     0.3699 C.ar    
  21 C21            0.7779     4.1201     0.9311 C.ar    
  22 C22            1.1531     5.4310     1.1234 C.ar    
  23 C23            2.4312     5.8518     0.7577 C.ar    
  24 C24            3.3309     4.9458     0.1973 C.ar    
  25 C25            2.9600     3.6329     0.0097 C.ar    
  26 N26            4.0045     9.1151     0.9992 N.pl3   
  27 N27            2.7396     9.3868     1.5344 N.2     
  28 C28            2.0357     8.2861     1.5166 C.2     
  29 C29            2.8341     7.2650     0.9646 C.2     
  30 C30            4.0457     7.8119     0.6554 C.2     
  31 C31            5.0933    10.0814     0.8352 C.3     
  32 C32            4.6024    11.2601     0.0346 C.ar    
  33 C33            4.0436    12.3483     0.6782 C.ar    
  34 C34            3.5933    13.4294    -0.0561 C.ar    
  35 C35            3.7023    13.4225    -1.4342 C.ar    
  36 C36            4.2620    12.3347    -2.0778 C.ar    
  37 C37            4.7162    11.2554    -1.3431 C.ar    
  38 C38            3.5232    -3.4220    -0.5614 C.3     
  39 C39            5.0504    -3.5149    -0.5567 C.3     
  40 H40            3.2004     0.7863     0.0396 H       
  41 H41           -1.4858    -0.9516    -1.3048 H       
  42 H42           -0.9721    -1.8788     0.1252 H       
  43 H43           -2.0349    -0.4638     0.3166 H       
  44 H44           -1.7805     1.2934     2.0516 H       
  45 H45           -4.3348     4.3011     0.4354 H       
  46 H46           -2.8437     4.5320    -1.5087 H       
  47 H47           -0.8116     3.1530    -1.6747 H       
  48 H48           -3.6120     4.8174     3.5325 H       
  49 H49           -4.1867     3.7821     4.8615 H       
  50 H50           -2.5461     3.5616     4.2072 H       
  51 H51           -0.2123     3.7945     1.2138 H       
  52 H52            0.4571     6.1336     1.5574 H       
  53 H53            4.3206     5.2728    -0.0857 H       
  54 H54            3.6586     2.9303    -0.4199 H       
  55 H55            1.0191     8.1778     1.8647 H       
  56 H56            4.8853     7.2947     0.2149 H       
  57 H57            5.4277    10.4218     1.8152 H       
  58 H58            5.9239     9.6076     0.3122 H       
  59 H59            3.9584    12.3537     1.7549 H       
  60 H60            3.1560    14.2793     0.4467 H       
  61 H61            3.3498    14.2668    -2.0080 H       
  62 H62            4.3468    12.3291    -3.1544 H       
  63 H63            5.1569    10.4071    -1.8457 H       
  64 H64            3.1196    -4.0339     0.2453 H       
  65 H65            3.1403    -3.7813    -1.5166 H       
  66 H66            5.3518    -4.5523    -0.7019 H       
  67 H67            5.4541    -2.9029    -1.3634 H       
  68 H68            5.4334    -3.1556     0.3985 H       
@<TRIPOS>BOND
   1    1    2 1
   2    1    5 1
   3    1   10 1
   4    2    3 2
   5    2    9 1
   6    3    4 1
   7    3    6 1
   8    4    5 2
   9    4   40 1
  10    5   20 1
  11    6    7 2
  12    6    8 1
  13    8   38 1
  14    9   41 1
  15    9   42 1
  16    9   43 1
  17   10   11 ar
  18   10   15 ar
  19   11   12 ar
  20   11   44 1
  21   12   13 ar
  22   12   16 1
  23   13   14 ar
  24   13   45 1
  25   14   15 ar
  26   14   46 1
  27   15   47 1
  28   16   17 2
  29   16   18 2
  30   16   19 1
  31   19   48 1
  32   19   49 1
  33   19   50 1
  34   20   21 ar
  35   20   25 ar
  36   21   22 ar
  37   21   51 1
  38   22   23 ar
  39   22   52 1
  40   23   24 ar
  41   23   29 1
  42   24   25 ar
  43   24   53 1
  44   25   54 1
  45   26   27 1
  46   26   30 1
  47   26   31 1
  48   27   28 2
  49   28   29 1
  50   28   55 1
  51   29   30 2
  52   30   56 1
  53   31   32 1
  54   31   57 1
  55   31   58 1
  56   32   33 ar
  57   32   37 ar
  58   33   34 ar
  59   33   59 1
  60   34   35 ar
  61   34   60 1
  62   35   36 ar
  63   35   61 1
  64   36   37 ar
  65   36   62 1
  66   37   63 1
  67   38   39 1
  68   38   64 1
  69   38   65 1
  70   39   66 1
  71   39   67 1
  72   39   68 1

#	End of record

