#	Name: ASD01180017
#	Creating user name:	WinNT
#	Creation time:	15. 06. 2019 19:06

#	Modifying user name:	WinNT
#	Modification time:	15. 06. 2019 19:06

#	Program:	/corina/corina34_cracker 3.40 0067  02.08.2006

@<TRIPOS>MOLECULE
ASD01180017
  31   32    0    0    0
SMALL
NO_CHARGES


@<TRIPOS>ATOM
   1 N1            -0.5433     1.1077     0.2805 N.ar    
   2 C2            -0.3371    -0.1881     0.3392 C.ar    
   3 C3             0.9304    -0.7206     0.0944 C.ar    
   4 N4             1.9423     0.0637    -0.1995 N.ar    
   5 C5             1.7580     1.3868    -0.2658 C.ar    
   6 C6             2.8204     2.2525    -0.5773 C.ar    
   7 C7             2.6018     3.5953    -0.6371 C.ar    
   8 C8             1.3345     4.1276    -0.3925 C.ar    
   9 C9             0.2824     3.3184    -0.0879 C.ar    
  10 C10            0.4707     1.9275    -0.0173 C.ar    
  11 C11            1.1398    -2.2111     0.1688 C.3     
  12 C12            1.0114    -2.8146    -1.2313 C.3     
  13 C13            1.0925    -4.3397    -1.1387 C.3     
  14 S14           -1.6743    -1.2664     0.7317 S.o2    
  15 O15           -2.8361    -0.4779     0.5130 O.2     
  16 O16           -1.4235    -2.4317    -0.0420 O.2     
  17 C17           -1.4676    -1.6191     2.4990 C.3     
  18 Cl18           1.0967     5.8451    -0.4773 Cl      
  19 Cl19           3.9176     4.6602    -1.0223 Cl      
  20 H20            3.8061     1.8545    -0.7681 H       
  21 H21           -0.6925     3.7439     0.0993 H       
  22 H22            2.1340    -2.4191     0.5643 H       
  23 H23            0.3886    -2.6513     0.8245 H       
  24 H24            0.0532    -2.5274    -1.6642 H       
  25 H25            1.8202    -2.4454    -1.8617 H       
  26 H26            2.0506    -4.6269    -0.7057 H       
  27 H27            0.2836    -4.7089    -0.5082 H       
  28 H28            1.0009    -4.7696    -2.1361 H       
  29 H29           -1.6073    -0.7019     3.0713 H       
  30 H30           -2.2059    -2.3579     2.8108 H       
  31 H31           -0.4655    -2.0093     2.6769 H       
@<TRIPOS>BOND
   1    1    2 ar
   2    1   10 ar
   3    2    3 ar
   4    2   14 1
   5    3    4 ar
   6    3   11 1
   7    4    5 ar
   8    5    6 ar
   9    5   10 ar
  10    6    7 ar
  11    6   20 1
  12    7    8 ar
  13    7   19 1
  14    8    9 ar
  15    8   18 1
  16    9   10 ar
  17    9   21 1
  18   11   12 1
  19   11   22 1
  20   11   23 1
  21   12   13 1
  22   12   24 1
  23   12   25 1
  24   13   26 1
  25   13   27 1
  26   13   28 1
  27   14   15 2
  28   14   16 2
  29   14   17 1
  30   17   29 1
  31   17   30 1
  32   17   31 1

#	End of record

