#	Name: ASD03230011
#	Creating user name:	WinNT
#	Creation time:	15. 06. 2019 20:34

#	Modifying user name:	WinNT
#	Modification time:	15. 06. 2019 20:34

#	Program:	/corina/corina34_cracker 3.40 0067  02.08.2006

@<TRIPOS>MOLECULE
ASD03230011
  84   87    0    0    0
SMALL
NO_CHARGES


@<TRIPOS>ATOM
   1 C1             2.7698     0.3532    -1.7009 C.2     
   2 C2             2.8459    -0.9802    -1.7340 C.2     
   3 C3             4.0998    -1.6855    -2.0265 C.2     
   4 C4             5.3977    -0.8885    -2.0686 C.3     
   5 C5             5.0104     0.4364    -2.7160 C.2     
   6 C6             3.9679     1.2063    -1.9386 C.3     
   7 C7             3.6762     2.5715    -2.5465 C.3     
   8 C8             5.5384     0.8337    -3.8318 C.2     
   9 C9             5.1189     2.1234    -4.5213 C.3     
  10 C10            3.6976     2.3961    -4.0509 C.3     
  11 C11            1.5961     4.1691    -2.8764 C.3     
  12 C12            2.3950     3.1675    -2.0471 C.2     
  13 C13            2.3674     4.5611    -4.1070 C.3     
  14 C14            1.6360     5.3632    -5.1942 C.3     
  15 C15            2.8546     3.3087    -4.8587 C.3     
  16 C16            3.4316     3.9293    -6.1407 C.3     
  17 C17            2.3355     4.9696    -6.5169 C.3     
  18 C18            5.9212    -0.6681    -0.6477 C.3     
  19 C19            6.4348    -1.6591    -2.8830 C.3     
  20 C20            4.8496     3.4169    -2.0454 C.3     
  21 C21            3.5393     5.4854    -3.7190 C.3     
  22 C22            1.6384     2.4490    -5.2902 C.3     
  23 C23            0.1361     5.1585    -5.2299 C.3     
  24 C24           -0.4543     5.9191    -6.4190 C.3     
  25 O25           -0.1514     3.7653    -5.3654 O.3     
  26 C26           -0.4719     5.6749    -3.9514 C.2     
  27 O27            0.0585     6.5870    -3.3524 O.2     
  28 C28           -1.7015     5.0765    -3.4325 C.2     
  29 C29           -2.2400     5.5338    -2.3002 C.2     
  30 C30           -3.5069     4.9172    -1.7655 C.3     
  31 C31           -3.2455     4.3419    -0.3721 C.3     
  32 C32           -4.5976     5.9867    -1.6794 C.3     
  33 O33           -3.9404     3.8542    -2.6545 O.3     
  34 C34           -5.0626     3.1986    -2.3187 C.2     
  35 C35           -5.5739     2.0830    -3.1933 C.3     
  36 O36           -5.6627     3.5030    -1.3151 O.2     
  37 O37            1.4083     4.4258    -7.4501 O.3     
  38 O38            1.9777     2.8591    -0.9359 O.2     
  39 O39            1.7236    -1.7065    -1.4872 O.3     
  40 O40            4.1080    -2.8800    -2.2282 O.2     
  41 H41            1.8123     0.8074    -1.5012 H       
  42 H42            4.4006     1.4266    -0.9646 H       
  43 H43            6.3120     0.2729    -4.3330 H       
  44 H44            5.8079     2.9227    -4.3073 H       
  45 H45            5.1129     1.9402    -5.6045 H       
  46 H46            3.1899     1.3897    -4.1997 H       
  47 H47            0.6237     3.7263    -3.1238 H       
  48 H48            1.3942     5.0627    -2.2611 H       
  49 H49            1.8429     6.4350    -5.0050 H       
  50 H50            4.3887     4.4041    -5.9683 H       
  51 H51            3.5130     3.1707    -6.9227 H       
  52 H52            2.8167     5.8531    -6.9507 H       
  53 H53            6.1073    -1.6327    -0.1753 H       
  54 H54            6.8492    -0.0977    -0.6868 H       
  55 H55            5.1801    -0.1170    -0.0688 H       
  56 H56            6.0636    -1.8071    -3.8971 H       
  57 H57            7.3653    -1.0924    -2.9157 H       
  58 H58            6.6156    -2.6280    -2.4173 H       
  59 H59            5.7092     3.2692    -2.6991 H       
  60 H60            4.5668     4.4695    -2.0493 H       
  61 H61            5.1085     3.1139    -1.0308 H       
  62 H62            4.4132     4.8812    -3.4751 H       
  63 H63            3.7748     6.1440    -4.5550 H       
  64 H64            3.2583     6.0842    -2.8527 H       
  65 H65            0.9753     2.3035    -4.4374 H       
  66 H66            1.0979     2.9586    -6.0879 H       
  67 H67            1.9870     1.4805    -5.6488 H       
  68 H68           -0.1672     5.4232    -7.3462 H       
  69 H69           -1.5410     5.9349    -6.3368 H       
  70 H70           -0.0751     6.9410    -6.4210 H       
  71 H71           -0.1461     3.2795    -4.5293 H       
  72 H72           -2.1737     4.2646    -3.9656 H       
  73 H73           -1.7678     6.3457    -1.7671 H       
  74 H74           -2.9201     5.1399     0.2953 H       
  75 H75           -4.1619     3.8960     0.0146 H       
  76 H76           -2.4684     3.5800    -0.4335 H       
  77 H77           -4.7838     6.3965    -2.6721 H       
  78 H78           -5.5140     5.5407    -1.2927 H       
  79 H79           -4.2722     6.7847    -1.0120 H       
  80 H80           -5.1411     1.1376    -2.8665 H       
  81 H81           -6.6601     2.0308    -3.1177 H       
  82 H82           -5.2905     2.2739    -4.2284 H       
  83 H83            1.8050     4.1659    -8.2928 H       
  84 H84            1.8572    -2.6633    -1.5289 H       
@<TRIPOS>BOND
   1    1    2 2
   2    1    6 1
   3    1   41 1
   4    2    3 1
   5    2   39 1
   6    3    4 1
   7    3   40 2
   8    4    5 1
   9    4   18 1
  10    4   19 1
  11    5    8 2
  12    5    6 1
  13    6    7 1
  14    6   42 1
  15    7   10 1
  16    7   20 1
  17    7   12 1
  18    8    9 1
  19    8   43 1
  20    9   10 1
  21    9   44 1
  22    9   45 1
  23   10   15 1
  24   10   46 1
  25   11   12 1
  26   11   13 1
  27   11   47 1
  28   11   48 1
  29   12   38 2
  30   13   15 1
  31   13   21 1
  32   13   14 1
  33   14   17 1
  34   14   23 1
  35   14   49 1
  36   15   16 1
  37   15   22 1
  38   16   17 1
  39   16   50 1
  40   16   51 1
  41   17   37 1
  42   17   52 1
  43   18   53 1
  44   18   54 1
  45   18   55 1
  46   19   56 1
  47   19   57 1
  48   19   58 1
  49   20   59 1
  50   20   60 1
  51   20   61 1
  52   21   62 1
  53   21   63 1
  54   21   64 1
  55   22   65 1
  56   22   66 1
  57   22   67 1
  58   23   24 1
  59   23   25 1
  60   23   26 1
  61   24   68 1
  62   24   69 1
  63   24   70 1
  64   25   71 1
  65   26   27 2
  66   26   28 1
  67   28   29 2
  68   28   72 1
  69   29   30 1
  70   29   73 1
  71   30   31 1
  72   30   32 1
  73   30   33 1
  74   31   74 1
  75   31   75 1
  76   31   76 1
  77   32   77 1
  78   32   78 1
  79   32   79 1
  80   33   34 1
  81   34   35 1
  82   34   36 2
  83   35   80 1
  84   35   81 1
  85   35   82 1
  86   37   83 1
  87   39   84 1

#	End of record

