#	Name: ASD01914129
#	Creating user name:	WinNT
#	Creation time:	15. 06. 2019 20:02

#	Modifying user name:	WinNT
#	Modification time:	15. 06. 2019 20:02

#	Program:	/corina/corina34_cracker 3.40 0067  02.08.2006

@<TRIPOS>MOLECULE
ASD01914129
  48   51    0    0    0
SMALL
NO_CHARGES


@<TRIPOS>ATOM
   1 C1            -0.8249     1.6243    -0.1862 C.2     
   2 C2            -0.6665     0.1643    -0.1781 C.2     
   3 N3            -1.6354    -0.7374    -0.1139 N.2     
   4 C4            -1.0190    -1.9283    -0.1343 C.2     
   5 N5             0.2612    -1.7097    -0.2078 N.2     
   6 O6             0.4890    -0.5189    -0.2401 O.3     
   7 C7            -1.6890    -3.2771    -0.0816 C.3     
   8 C8            -1.3403    -4.0703    -1.3431 C.3     
   9 C9            -2.0467    -5.4275    -1.3059 C.3     
  10 C10           -1.5603    -6.2185    -0.0875 C.3     
  11 N11           -1.7595    -5.4014     1.1172 N.am    
  12 C12           -1.1986    -4.0438     1.1507 C.3     
  13 C13           -0.0737    -6.5433    -0.2470 C.3     
  14 C14           -2.4438    -5.8878     2.1715 C.2     
  15 C15           -2.5253    -5.1050     3.4268 C.ar    
  16 C16           -3.7191    -5.0346     4.1533 C.ar    
  17 C17           -3.7542    -4.2952     5.3182 C.ar    
  18 N18           -2.6830    -3.6591     5.7508 N.ar    
  19 C19           -1.5344    -3.6974     5.0973 C.ar    
  20 C20           -1.4115    -4.4225     3.9195 C.ar    
  21 O21           -2.9938    -6.9685     2.0925 O.2     
  22 C22            0.1908     2.5525    -0.2532 C.2     
  23 C23           -0.4063     3.8196    -0.2347 C.2     
  24 C24           -1.7466     3.6450    -0.1584 C.2     
  25 N25           -2.0142     2.3124    -0.1342 N.pl3   
  26 Cl26           0.4245     5.3425    -0.2979 Cl      
  27 O27           -0.4622    -3.0245     5.5856 O.3     
  28 C28           -0.6499    -2.3011     6.8036 C.3     
  29 H29           -2.7693    -3.1447    -0.0221 H       
  30 H30           -1.6663    -3.5153    -2.2227 H       
  31 H31           -0.2621    -4.2233    -1.3895 H       
  32 H32           -3.1236    -5.2753    -1.2346 H       
  33 H33           -1.8166    -5.9824    -2.2154 H       
  34 H34           -2.1311    -7.1430    -0.0005 H       
  35 H35           -0.1100    -4.0978     1.1381 H       
  36 H36           -1.5307    -3.5334     2.0547 H       
  37 H37            0.4941    -5.6163    -0.3273 H       
  38 H38            0.2704    -7.1061     0.6208 H       
  39 H39            0.0736    -7.1388    -1.1479 H       
  40 H40           -4.6016    -5.5518     3.8068 H       
  41 H41           -4.6725    -4.2364     5.8836 H       
  42 H42           -0.4714    -4.4513     3.3887 H       
  43 H43            1.2488     2.3427    -0.3089 H       
  44 H44           -2.4826     4.4347    -0.1267 H       
  45 H45           -2.8968     1.9134    -0.0823 H       
  46 H46           -1.4280    -1.5507     6.6643 H       
  47 H47           -0.9474    -2.9907     7.5936 H       
  48 H48            0.2826    -1.8102     7.0821 H       
@<TRIPOS>BOND
   1    1    2 1
   2    1   22 2
   3    1   25 1
   4    2    3 2
   5    2    6 1
   6    3    4 1
   7    4    5 2
   8    4    7 1
   9    5    6 1
  10    7    8 1
  11    7   12 1
  12    7   29 1
  13    8    9 1
  14    8   30 1
  15    8   31 1
  16    9   10 1
  17    9   32 1
  18    9   33 1
  19   10   11 1
  20   10   13 1
  21   10   34 1
  22   11   12 1
  23   11   14 am
  24   12   35 1
  25   12   36 1
  26   13   37 1
  27   13   38 1
  28   13   39 1
  29   14   15 1
  30   14   21 2
  31   15   16 ar
  32   15   20 ar
  33   16   17 ar
  34   16   40 1
  35   17   18 ar
  36   17   41 1
  37   18   19 ar
  38   19   20 ar
  39   19   27 1
  40   20   42 1
  41   22   23 1
  42   22   43 1
  43   23   24 2
  44   23   26 1
  45   24   25 1
  46   24   44 1
  47   25   45 1
  48   27   28 1
  49   28   46 1
  50   28   47 1
  51   28   48 1

#	End of record

