#	Name: ASD01901176
#	Creating user name:	WinNT
#	Creation time:	15. 06. 2019 19:53

#	Modifying user name:	WinNT
#	Modification time:	15. 06. 2019 19:53

#	Program:	/corina/corina34_cracker 3.40 0067  02.08.2006

@<TRIPOS>MOLECULE
ASD01901176
  55   58    0    0    0
SMALL
NO_CHARGES


@<TRIPOS>ATOM
   1 C1            -0.0156     1.3123     0.0106 C.ar    
   2 N2             0.0023    -0.0041     0.0035 N.ar    
   3 C3             1.1319    -0.6859    -0.0109 C.ar    
   4 C4             2.3559    -0.0416    -0.0192 C.ar    
   5 C5             2.3937     1.3415    -0.0123 C.ar    
   6 C6             1.1783     2.0387     0.0030 C.ar    
   7 C7             1.1599     3.4705     0.0103 C.1     
   8 C8             1.1449     4.6444     0.0163 C.1     
   9 C9             1.1265     6.0763     0.0236 C.ar    
  10 C10            2.3269     6.7924     0.0159 C.ar    
  11 C11            2.3054     8.1722     0.0230 C.ar    
  12 C12            1.0909     8.8505     0.0382 C.ar    
  13 C13           -0.1059     8.1411     0.0459 C.ar    
  14 C14           -0.0920     6.7612     0.0326 C.ar    
  15 N15            1.0729    10.2529     0.0463 N.am    
  16 C16            1.0534    10.9211    -1.1190 C.2     
  17 N17            0.7973    12.2383    -1.1701 N.am    
  18 C18            0.4069    12.9763     0.0326 C.3     
  19 C19            1.1563    12.4146     1.2430 C.3     
  20 C20            1.0698    10.9088     1.2212 C.2     
  21 O21            1.2733    10.3190    -2.1516 O.2     
  22 O22            1.0013    10.2897     2.2613 O.2     
  23 C23            0.9105    12.9470    -2.4473 C.3     
  24 C24            0.7591    14.4547    -0.1440 C.3     
  25 C25           -1.0775    12.8367     0.2520 C.ar    
  26 F26            3.4652     8.8651     0.0156 F       
  27 C27           -1.6613    13.3721     1.3840 C.ar    
  28 C28           -1.8548    12.1781    -0.6824 C.ar    
  29 C29           -3.2174    12.0491    -0.4845 C.ar    
  30 C30           -3.8051    12.5784     0.6479 C.ar    
  31 C31           -3.0277    13.2437     1.5851 C.ar    
  32 F32           -1.2830     8.8039     0.0611 F       
  33 O33           -3.6043    13.7691     2.6980 O.3     
  34 C34           -5.0160    13.5989     2.8392 C.3     
  35 H35           -0.9606     1.8351     0.0179 H       
  36 H36            1.1003    -1.7654    -0.0159 H       
  37 H37            3.2727    -0.6123    -0.0306 H       
  38 H38            3.3356     1.8700    -0.0182 H       
  39 H39            3.2702     6.2665     0.0048 H       
  40 H40           -1.0214     6.2112     0.0340 H       
  41 H41            2.2007    12.7236     1.2002 H       
  42 H42            0.7016    12.7906     2.1595 H       
  43 H43            1.2089    12.2458    -3.2267 H       
  44 H44           -0.0524    13.3881    -2.7048 H       
  45 H45            1.6593    13.7343    -2.3608 H       
  46 H46            1.8328    14.5560    -0.3023 H       
  47 H47            0.2254    14.8549    -1.0061 H       
  48 H48            0.4701    15.0064     0.7505 H       
  49 H49           -1.0542    13.8899     2.1119 H       
  50 H50           -1.3973    11.7638    -1.5687 H       
  51 H51           -3.8226    11.5344    -1.2161 H       
  52 H52           -4.8693    12.4781     0.8017 H       
  53 H53           -5.2534    12.5352     2.8607 H       
  54 H54           -5.3470    14.0638     3.7679 H       
  55 H55           -5.5246    14.0677     1.9968 H       
@<TRIPOS>BOND
   1    1    2 ar
   2    1    6 ar
   3    1   35 1
   4    2    3 ar
   5    3    4 ar
   6    3   36 1
   7    4    5 ar
   8    4   37 1
   9    5    6 ar
  10    5   38 1
  11    6    7 1
  12    7    8 3
  13    8    9 1
  14    9   10 ar
  15    9   14 ar
  16   10   11 ar
  17   10   39 1
  18   11   12 ar
  19   11   26 1
  20   12   13 ar
  21   12   15 1
  22   13   14 ar
  23   13   32 1
  24   14   40 1
  25   15   16 am
  26   15   20 am
  27   16   17 am
  28   16   21 2
  29   17   23 1
  30   17   18 1
  31   18   19 1
  32   18   24 1
  33   18   25 1
  34   19   20 1
  35   19   41 1
  36   19   42 1
  37   20   22 2
  38   23   43 1
  39   23   44 1
  40   23   45 1
  41   24   46 1
  42   24   47 1
  43   24   48 1
  44   25   28 ar
  45   25   27 ar
  46   27   31 ar
  47   27   49 1
  48   28   29 ar
  49   28   50 1
  50   29   30 ar
  51   29   51 1
  52   30   31 ar
  53   30   52 1
  54   31   33 1
  55   33   34 1
  56   34   53 1
  57   34   54 1
  58   34   55 1

#	End of record

