#	Name: ASD07300008
#	Creating user name:	WinNT
#	Creation time:	15. 06. 2019 21:09

#	Modifying user name:	WinNT
#	Modification time:	15. 06. 2019 21:09

#	Program:	/corina/corina34_cracker 3.40 0067  02.08.2006

@<TRIPOS>MOLECULE
ASD07300008
  58   62    0    0    0
SMALL
NO_CHARGES


@<TRIPOS>ATOM
   1 C1            -0.0581     1.4001     0.0469 C.2     
   2 C2            -0.0710    -0.0565    -0.1643 C.2     
   3 C3             1.1774    -0.7236    -0.1456 C.2     
   4 C4             2.2911     0.0223     0.0644 C.2     
   5 N5             2.2053     1.3591     0.2492 N.pl3   
   6 N6             1.0961     2.0014     0.2398 N.2     
   7 O7            -1.1152    -0.6642    -0.3476 O.2     
   8 N8            -2.2420     2.2043    -0.9688 N.pl3   
   9 N9            -3.2773     3.0586    -0.5693 N.2     
  10 C10           -3.0003     3.5276     0.6213 C.2     
  11 C11           -1.7793     2.9976     1.0384 C.2     
  12 C12           -1.3167     2.1731     0.0364 C.2     
  13 C13           -2.1707     1.5029    -2.1791 C.ar    
  14 C14           -3.3024     0.8818    -2.6910 C.ar    
  15 C15           -3.2288     0.1908    -3.8846 C.ar    
  16 C16           -2.0299     0.1172    -4.5698 C.ar    
  17 C17           -0.9013     0.7347    -4.0627 C.ar    
  18 C18           -0.9697     1.4319    -2.8725 C.ar    
  19 C19            3.3869     2.0773     0.4620 C.ar    
  20 C20            3.5219     2.8795     1.5906 C.ar    
  21 C21            4.6920     3.5878     1.7966 C.ar    
  22 C22            5.7254     3.4985     0.8826 C.ar    
  23 C23            5.5933     2.7019    -0.2404 C.ar    
  24 C24            4.4306     1.9868    -0.4500 C.ar    
  25 F25            2.5117     2.9670     2.4834 F       
  26 C26            6.9989     4.2715     1.1101 C.3     
  27 C27            8.1759     3.2986     1.2055 C.3     
  28 C28            7.2265     5.2343    -0.0570 C.3     
  29 C29            8.5194     6.0191     0.1740 C.3     
  30 C30            9.6964     5.0462     0.2694 C.3     
  31 C31            9.4688     4.0833     1.4365 C.3     
  32 C32            9.8080     4.2513    -1.0331 C.3     
  33 O33           10.9040     5.7791     0.4852 O.3     
  34 H34            1.2413    -1.7916    -0.2933 H       
  35 H35            3.2583    -0.4577     0.0846 H       
  36 H36           -3.6155     4.2117     1.1869 H       
  37 H37           -1.2853     3.1981     1.9776 H       
  38 H38           -4.2389     0.9386    -2.1562 H       
  39 H39           -4.1084    -0.2927    -4.2831 H       
  40 H40           -1.9748    -0.4240    -5.5029 H       
  41 H41            0.0337     0.6751    -4.6000 H       
  42 H42           -0.0889     1.9177    -2.4792 H       
  43 H43            4.7983     4.2114     2.6720 H       
  44 H44            6.4027     2.6354    -0.9524 H       
  45 H45            4.3310     1.3615    -1.3249 H       
  46 H46            6.9194     4.8377     2.0381 H       
  47 H47            8.0137     2.6126     2.0370 H       
  48 H48            8.2554     2.7323     0.2775 H       
  49 H49            7.3060     4.6681    -0.9850 H       
  50 H50            6.3880     5.9274    -0.1250 H       
  51 H51            8.6815     6.7050    -0.6575 H       
  52 H52            8.4399     6.5853     1.1020 H       
  53 H53            9.3893     4.6496     2.3645 H       
  54 H54           10.3073     3.3902     1.5045 H       
  55 H55            9.9701     4.9373    -1.8646 H       
  56 H56           10.6465     3.5582    -0.9651 H       
  57 H57            8.8869     3.6923    -1.1977 H       
  58 H58           11.6932     5.2249     0.5558 H       
@<TRIPOS>BOND
   1    1    2 1
   2    1    6 2
   3    1   12 1
   4    2    3 1
   5    2    7 2
   6    3    4 2
   7    3   34 1
   8    4    5 1
   9    4   35 1
  10    5    6 1
  11    5   19 1
  12    8    9 1
  13    8   12 1
  14    8   13 1
  15    9   10 2
  16   10   11 1
  17   10   36 1
  18   11   12 2
  19   11   37 1
  20   13   14 ar
  21   13   18 ar
  22   14   15 ar
  23   14   38 1
  24   15   16 ar
  25   15   39 1
  26   16   17 ar
  27   16   40 1
  28   17   18 ar
  29   17   41 1
  30   18   42 1
  31   19   20 ar
  32   19   24 ar
  33   20   21 ar
  34   20   25 1
  35   21   22 ar
  36   21   43 1
  37   22   23 ar
  38   22   26 1
  39   23   24 ar
  40   23   44 1
  41   24   45 1
  42   26   27 1
  43   26   28 1
  44   26   46 1
  45   27   31 1
  46   27   47 1
  47   27   48 1
  48   28   29 1
  49   28   49 1
  50   28   50 1
  51   29   30 1
  52   29   51 1
  53   29   52 1
  54   30   31 1
  55   30   32 1
  56   30   33 1
  57   31   53 1
  58   31   54 1
  59   32   55 1
  60   32   56 1
  61   32   57 1
  62   33   58 1

#	End of record

