#	Name: ASD03090456
#	Creating user name:	WinNT
#	Creation time:	15. 06. 2019 20:28

#	Modifying user name:	WinNT
#	Modification time:	15. 06. 2019 20:28

#	Program:	/corina/corina34_cracker 3.40 0067  02.08.2006

@<TRIPOS>MOLECULE
ASD03090456
  40   42    0    0    0
SMALL
NO_CHARGES


@<TRIPOS>ATOM
   1 C1            -0.0186     1.5023     0.0155 C.2     
   2 C2             0.0014    -0.0045     0.0124 C.3     
   3 O3             1.0237     2.1227     0.0094 O.2     
   4 N4            -1.1946     2.1607     0.0195 N.am    
   5 N5             4.2721    -1.4535    -2.2206 N.pl3   
   6 C6             5.4642    -1.8571    -1.6838 C.2     
   7 C7             5.3942    -1.8320    -0.3434 C.2     
   8 C8             4.0472    -1.3750     0.0066 C.ar    
   9 C9             3.3823    -1.1483     1.2133 C.ar    
  10 C10            2.0880    -0.7108     1.2027 C.ar    
  11 C11            1.4287    -0.4880     0.0014 C.ar    
  12 C12            2.0658    -0.7048    -1.2004 C.ar    
  13 C13            3.3835    -1.1512    -1.2133 C.ar    
  14 C14           -1.2153     3.5571     0.1329 C.ar    
  15 C15           -2.1836     4.2939    -0.5360 C.ar    
  16 C16           -2.2037     5.6700    -0.4234 C.ar    
  17 C17           -1.2567     6.3163     0.3575 C.ar    
  18 C18           -0.2887     5.5808     1.0257 C.ar    
  19 C19           -0.2712     4.2041     0.9189 C.ar    
  20 O20           -1.2768     7.6714     0.4676 O.3     
  21 C21           -0.2720     8.2707     1.2881 C.3     
  22 C22           -0.4542     9.7898     1.2900 C.3     
  23 H23           -0.5013    -0.3764     0.9053 H       
  24 H24           -0.5139    -0.3729    -0.8747 H       
  25 H25           -2.0266     1.6678    -0.0562 H       
  26 H26            4.0825    -1.3863    -3.1696 H       
  27 H27            6.3326    -2.1524    -2.2539 H       
  28 H28            6.1817    -2.0983     0.3460 H       
  29 H29            3.8888    -1.3195     2.1517 H       
  30 H30            1.5740    -0.5360     2.1363 H       
  31 H31            1.5443    -0.5289    -2.1296 H       
  32 H32           -2.9205     3.7909    -1.1445 H       
  33 H33           -2.9568     6.2433    -0.9436 H       
  34 H34            0.4487     6.0846     1.6328 H       
  35 H35            0.4797     3.6313     1.4427 H       
  36 H36           -0.3614     7.8927     2.3065 H       
  37 H37            0.7138     8.0235     0.8941 H       
  38 H38           -0.3647    10.1677     0.2715 H       
  39 H39           -1.4400    10.0370     1.6840 H       
  40 H40            0.3123    10.2469     1.9158 H       
@<TRIPOS>BOND
   1    1    2 1
   2    1    3 2
   3    1    4 am
   4    2   11 1
   5    2   23 1
   6    2   24 1
   7    4   14 1
   8    4   25 1
   9    5    6 1
  10    5   13 1
  11    5   26 1
  12    6    7 2
  13    6   27 1
  14    7    8 1
  15    7   28 1
  16    8    9 ar
  17    8   13 ar
  18    9   10 ar
  19    9   29 1
  20   10   11 ar
  21   10   30 1
  22   11   12 ar
  23   12   13 ar
  24   12   31 1
  25   14   15 ar
  26   14   19 ar
  27   15   16 ar
  28   15   32 1
  29   16   17 ar
  30   16   33 1
  31   17   18 ar
  32   17   20 1
  33   18   19 ar
  34   18   34 1
  35   19   35 1
  36   20   21 1
  37   21   22 1
  38   21   36 1
  39   21   37 1
  40   22   38 1
  41   22   39 1
  42   22   40 1

#	End of record

