#	Name: ASD09890082
#	Creating user name:	WinNT
#	Creation time:	15. 06. 2019 21:24

#	Modifying user name:	WinNT
#	Modification time:	15. 06. 2019 21:24

#	Program:	/corina/corina34_cracker 3.40 0067  02.08.2006

@<TRIPOS>MOLECULE
ASD09890082
  53   57    0    0    0
SMALL
NO_CHARGES


@<TRIPOS>ATOM
   1 C1            -0.0176     1.3672     0.0648 C.2     
   2 N2            -0.0056    -0.0001     0.0347 N.pl3   
   3 C3            -1.2996    -0.4350     0.1197 C.2     
   4 N4            -2.0757     0.6195     0.1989 N.2     
   5 N5            -1.2619     1.7594     0.1689 N.2     
   6 S6            -1.8305    -2.1151     0.1216 S.3     
   7 C7            -3.6339    -1.9731     0.2566 C.3     
   8 C8             1.1331    -0.8132    -0.0662 C.ar    
   9 C9             2.0791    -0.8330     0.9545 C.ar    
  10 C10            3.1872    -1.6522     0.8092 C.ar    
  11 C11            3.3161    -2.4166    -0.3352 C.ar    
  12 N12            2.4015    -2.3746    -1.2844 N.ar    
  13 C13            1.3299    -1.6139    -1.1830 C.ar    
  14 C14           -4.2818    -3.3645     0.1470 C.3     
  15 C15           -5.0368    -3.6045     1.4707 C.3     
  16 C16           -5.3128    -2.1806     2.0141 C.3     
  17 C17           -4.0178    -1.4162     1.6430 C.3     
  18 O18            1.0701     2.1752     0.0035 O.3     
  19 C19            0.8651     3.5145    -0.0919 C.ar    
  20 C20           -0.4194     4.0070    -0.2839 C.ar    
  21 C21            1.9395     4.3890     0.0086 C.ar    
  22 C22            1.7345     5.7489    -0.0869 C.ar    
  23 C23            0.4466     6.2462    -0.2850 C.ar    
  24 C24           -0.6309     5.3658    -0.3806 C.ar    
  25 C25            0.2227     7.7077    -0.3881 C.ar    
  26 C26           -1.0667     8.2031    -0.5864 C.ar    
  27 C27           -1.2759     9.5600    -0.6823 C.ar    
  28 C28           -0.1962    10.4420    -0.5810 C.ar    
  29 C29            1.0949     9.9444    -0.3825 C.ar    
  30 C30            1.3007     8.5873    -0.2812 C.ar    
  31 C31           -0.4125    11.8540    -0.6811 C.1     
  32 N32           -0.5840    12.9741    -0.7605 N.1     
  33 H33           -4.0165    -1.3202    -0.5279 H       
  34 H34            1.9528    -0.2247     1.8379 H       
  35 H35            3.9416    -1.6926     1.5809 H       
  36 H36            4.1777    -3.0569    -0.4537 H       
  37 H37            0.6024    -1.6062    -1.9811 H       
  38 H38           -4.9795    -3.3866    -0.6902 H       
  39 H39           -3.5126    -4.1250     0.0127 H       
  40 H40           -5.9735    -4.1304     1.2856 H       
  41 H41           -4.4148    -4.1653     2.1684 H       
  42 H42           -6.1775    -1.7389     1.5188 H       
  43 H43           -5.4536    -2.2002     3.0948 H       
  44 H44           -3.2312    -1.6235     2.3686 H       
  45 H45           -4.2107    -0.3451     1.5838 H       
  46 H46           -1.2533     3.3247    -0.3578 H       
  47 H47            2.9365     4.0033     0.1620 H       
  48 H48            2.5702     6.4284    -0.0080 H       
  49 H49           -1.6292     5.7479    -0.5344 H       
  50 H50           -1.9007     7.5215    -0.6649 H       
  51 H51           -2.2739     9.9432    -0.8360 H       
  52 H52            1.9299    10.6248    -0.3041 H       
  53 H53            2.2981     8.2026    -0.1278 H       
@<TRIPOS>BOND
   1    1    2 1
   2    1   18 1
   3    1    5 2
   4    2    3 1
   5    2    8 1
   6    3    4 2
   7    3    6 1
   8    4    5 1
   9    6    7 1
  10    7   14 1
  11    7   17 1
  12    7   33 1
  13    8    9 ar
  14    8   13 ar
  15    9   10 ar
  16    9   34 1
  17   10   11 ar
  18   10   35 1
  19   11   12 ar
  20   11   36 1
  21   12   13 ar
  22   13   37 1
  23   14   15 1
  24   14   38 1
  25   14   39 1
  26   15   16 1
  27   15   40 1
  28   15   41 1
  29   16   17 1
  30   16   42 1
  31   16   43 1
  32   17   44 1
  33   17   45 1
  34   18   19 1
  35   19   20 ar
  36   19   21 ar
  37   20   24 ar
  38   20   46 1
  39   21   22 ar
  40   21   47 1
  41   22   23 ar
  42   22   48 1
  43   23   24 ar
  44   23   25 1
  45   24   49 1
  46   25   26 ar
  47   25   30 ar
  48   26   27 ar
  49   26   50 1
  50   27   28 ar
  51   27   51 1
  52   28   29 ar
  53   28   31 1
  54   29   30 ar
  55   29   52 1
  56   30   53 1
  57   31   32 3

#	End of record

