#	Name: ASD01917659
#	Creating user name:	WinNT
#	Creation time:	15. 06. 2019 20:09

#	Modifying user name:	WinNT
#	Modification time:	15. 06. 2019 20:09

#	Program:	/corina/corina34_cracker 3.40 0067  02.08.2006

@<TRIPOS>MOLECULE
ASD01917659
  43   45    0    0    0
SMALL
NO_CHARGES


@<TRIPOS>ATOM
   1 C1            -0.5728     0.3746     2.0648 C.ar    
   2 C2            -0.6815    -0.7855     2.8132 C.ar    
   3 C3            -1.9144    -1.1980     3.2876 C.ar    
   4 C4            -3.0446    -0.4555     3.0180 C.ar    
   5 C5            -2.9435     0.7169     2.2632 C.ar    
   6 C6            -1.6949     1.1308     1.7915 C.ar    
   7 Cl7            0.9789     0.8828     1.4752 Cl      
   8 C8            -4.1131     1.4927     1.9790 C.1     
   9 C9            -5.0721     2.1286     1.7459 C.1     
  10 C10           -6.2417     2.9043     1.4617 C.ar    
  11 C11           -6.1582     4.0842     0.7052 C.ar    
  12 N12           -7.2592     4.7683     0.4661 N.ar    
  13 C13           -8.4320     4.3564     0.9287 C.ar    
  14 N14           -8.5543     3.2483     1.6472 N.ar    
  15 C15           -7.5041     2.5025     1.9269 C.ar    
  16 C16           -9.6430     5.1592     0.6339 C.2     
  17 O17           -9.5933     6.3725     0.6787 O.2     
  18 N18          -10.7990     4.5433     0.3164 N.am    
  19 C19          -10.8531     3.0851     0.1267 C.3     
  20 C20          -12.0038     2.5297     0.9737 C.3     
  21 O21          -13.1999     3.2536     0.6753 O.3     
  22 C22          -13.1370     4.6454     0.9957 C.3     
  23 C23          -12.0456     5.3085     0.1554 C.3     
  24 C24          -11.8339     6.7480     0.6287 C.3     
  25 C25          -12.4564     5.3050    -1.3184 C.3     
  26 H26            0.2001    -1.3715     3.0273 H       
  27 H27           -1.9916    -2.1040     3.8703 H       
  28 H28           -4.0059    -0.7791     3.3888 H       
  29 H29           -1.6092     2.0354     1.2078 H       
  30 H30           -5.2067     4.4261     0.3256 H       
  31 H31           -7.6115     1.6013     2.5123 H       
  32 H32          -11.0285     2.8580    -0.9249 H       
  33 H33           -9.9122     2.6380     0.4473 H       
  34 H34          -12.1496     1.4745     0.7426 H       
  35 H35          -11.7645     2.6418     2.0312 H       
  36 H36          -14.0982     5.1123     0.7805 H       
  37 H37          -12.9019     4.7653     2.0533 H       
  38 H38          -11.4016     6.7416     1.6292 H       
  39 H39          -11.1577     7.2599    -0.0561 H       
  40 H40          -12.7917     7.2680     0.6500 H       
  41 H41          -13.3891     5.8567    -1.4369 H       
  42 H42          -11.6761     5.7784    -1.9143 H       
  43 H43          -12.5969     4.2776    -1.6541 H       
@<TRIPOS>BOND
   1    1    2 ar
   2    1    7 1
   3    1    6 ar
   4    2    3 ar
   5    2   26 1
   6    3    4 ar
   7    3   27 1
   8    4    5 ar
   9    4   28 1
  10    5    6 ar
  11    5    8 1
  12    6   29 1
  13    8    9 3
  14    9   10 1
  15   10   11 ar
  16   10   15 ar
  17   11   12 ar
  18   11   30 1
  19   12   13 ar
  20   13   14 ar
  21   13   16 1
  22   14   15 ar
  23   15   31 1
  24   16   17 2
  25   16   18 am
  26   18   19 1
  27   18   23 1
  28   19   20 1
  29   19   32 1
  30   19   33 1
  31   20   21 1
  32   20   34 1
  33   20   35 1
  34   21   22 1
  35   22   23 1
  36   22   36 1
  37   22   37 1
  38   23   24 1
  39   23   25 1
  40   24   38 1
  41   24   39 1
  42   24   40 1
  43   25   41 1
  44   25   42 1
  45   25   43 1

#	End of record

