#	Name: ASD03730908
#	Creating user name:	WinNT
#	Creation time:	15. 06. 2019 20:44

#	Modifying user name:	WinNT
#	Modification time:	15. 06. 2019 20:44

#	Program:	/corina/corina34_cracker 3.40 0067  02.08.2006

@<TRIPOS>MOLECULE
ASD03730908
  63   69    0    0    0
SMALL
NO_CHARGES


@<TRIPOS>ATOM
   1 C1            -0.0180     1.4742     0.0101 C.2     
   2 C2             0.0021    -0.0041     0.0020 C.ar    
   3 C3             1.2186    -0.6886    -0.0133 C.ar    
   4 C4             1.2303    -2.0679    -0.0203 C.ar    
   5 C5             0.0396    -2.7730    -0.0127 C.ar    
   6 C6            -1.1694    -2.1008     0.0024 C.ar    
   7 C7            -1.1950    -0.7213     0.0154 C.ar    
   8 O8             1.0263     2.0963     0.0035 O.2     
   9 N9            -1.1942     2.1322     0.0193 N.am    
  10 C10           -1.2141     3.5970     0.0274 C.3     
  11 O11           -3.3070     3.7294     1.2792 O.3     
  12 C12           -2.6633     4.0874     0.0369 C.3     
  13 C13           -2.7090     5.6310    -0.0009 C.3     
  14 C14           -3.8999     5.9939     0.9143 C.3     
  15 C15           -4.4328     4.6265     1.3967 C.3     
  16 C16            2.5426    -2.8085    -0.0368 C.3     
  17 O17           -0.8950    -3.3222     6.2568 O.3     
  18 C18           -0.9357    -3.5767     7.6734 C.3     
  19 O19           -0.0305    -4.6825     7.8486 O.3     
  20 C20            0.8672    -4.5864     6.8240 C.ar    
  21 C21            0.3345    -3.7506     5.8451 C.ar    
  22 C22            2.1164    -5.1528     6.6449 C.ar    
  23 C23            2.8483    -4.8954     5.4896 C.ar    
  24 C24            2.3022    -4.0656     4.5151 C.ar    
  25 C25            1.0594    -3.4944     4.6934 C.ar    
  26 O26            4.0884    -5.3328     5.1276 O.3     
  27 C27            3.3036    -4.0052     3.3929 C.3     
  28 C28            4.2536    -5.1693     3.7058 C.3     
  29 N29            2.9813    -3.0555     1.3390 N.am    
  30 C30            2.6574    -4.1565     2.0459 C.2     
  31 C31            4.0258    -2.6916     3.3422 C.ar    
  32 C32            4.7978    -1.9949     4.2449 C.ar    
  33 C33            5.3433    -0.7733     3.8926 C.ar    
  34 C34            5.1110    -0.2535     2.6322 C.ar    
  35 C35            4.3376    -0.9471     1.7248 C.ar    
  36 C36            3.7848    -2.1777     2.0707 C.ar    
  37 O37            1.9775    -5.0871     1.6680 O.2     
  38 H38            2.1485    -0.1394    -0.0199 H       
  39 H39            0.0543    -3.8529    -0.0190 H       
  40 H40           -2.0951    -2.6570     0.0083 H       
  41 H41           -2.1395    -0.1977     0.0314 H       
  42 H42           -2.0276     1.6358     0.0206 H       
  43 H43           -0.7010     3.9625     0.9169 H       
  44 H44           -0.7094     3.9721    -0.8630 H       
  45 H45           -3.2102     3.6691    -0.8081 H       
  46 H46           -1.7831     6.0503     0.3929 H       
  47 H47           -2.8871     5.9831    -1.0169 H       
  48 H48           -3.5627     6.5925     1.7605 H       
  49 H49           -4.6667     6.5253     0.3507 H       
  50 H50           -5.2522     4.2926     0.7602 H       
  51 H51           -4.7596     4.6913     2.4346 H       
  52 H52            2.4166    -3.7596    -0.5542 H       
  53 H53            3.2914    -2.2095    -0.5550 H       
  54 H54           -0.5884    -2.7057     8.2291 H       
  55 H55           -1.9432    -3.8536     7.9839 H       
  56 H56            2.5266    -5.7991     7.4068 H       
  57 H57            0.6506    -2.8459     3.9327 H       
  58 H58            5.2829    -4.9048     3.4636 H       
  59 H59            3.9491    -6.0710     3.1745 H       
  60 H60            4.9778    -2.4026     5.2287 H       
  61 H61            5.9496    -0.2270     4.6001 H       
  62 H62            5.5367     0.7002     2.3573 H       
  63 H63            4.1602    -0.5344     0.7427 H       
@<TRIPOS>BOND
   1    1    2 1
   2    1    8 2
   3    1    9 am
   4    2    3 ar
   5    2    7 ar
   6    3    4 ar
   7    3   38 1
   8    4    5 ar
   9    4   16 1
  10    5    6 ar
  11    5   39 1
  12    6    7 ar
  13    6   40 1
  14    7   41 1
  15    9   10 1
  16    9   42 1
  17   10   12 1
  18   10   43 1
  19   10   44 1
  20   11   12 1
  21   11   15 1
  22   12   13 1
  23   12   45 1
  24   13   14 1
  25   13   46 1
  26   13   47 1
  27   14   15 1
  28   14   48 1
  29   14   49 1
  30   15   50 1
  31   15   51 1
  32   16   29 1
  33   16   52 1
  34   16   53 1
  35   17   18 1
  36   17   21 1
  37   18   19 1
  38   18   54 1
  39   18   55 1
  40   19   20 1
  41   20   21 ar
  42   20   22 ar
  43   21   25 ar
  44   22   23 ar
  45   22   56 1
  46   23   24 ar
  47   23   26 1
  48   24   25 ar
  49   24   27 1
  50   25   57 1
  51   26   28 1
  52   27   28 1
  53   27   30 1
  54   27   31 1
  55   28   58 1
  56   28   59 1
  57   29   30 am
  58   29   36 1
  59   30   37 2
  60   31   32 ar
  61   31   36 ar
  62   32   33 ar
  63   32   60 1
  64   33   34 ar
  65   33   61 1
  66   34   35 ar
  67   34   62 1
  68   35   36 ar
  69   35   63 1

#	End of record

