#	Name: ASD01840525
#	Creating user name:	WinNT
#	Creation time:	15. 06. 2019 19:37

#	Modifying user name:	WinNT
#	Modification time:	15. 06. 2019 19:37

#	Program:	/corina/corina34_cracker 3.40 0067  02.08.2006

@<TRIPOS>MOLECULE
ASD01840525
  46   49    0    0    0
SMALL
NO_CHARGES


@<TRIPOS>ATOM
   1 C1             2.5878    -0.3959     1.0297 C.3     
   2 C2             1.3178    -1.0588     0.5621 C.ar    
   3 C3             1.2805    -1.6983    -0.6476 C.ar    
   4 C4             0.0796    -2.2990    -1.0383 C.ar    
   5 C5            -0.0569    -3.0070    -2.3154 C.2     
   6 O6             0.8776    -3.0994    -3.0905 O.2     
   7 N7            -1.2623    -3.5540    -2.5987 N.am    
   8 C8            -2.2927    -3.4416    -1.7230 C.2     
   9 N9            -2.2009    -2.8206    -0.5857 N.2     
  10 C10           -1.0467    -2.2314    -0.1874 C.ar    
  11 N11           -0.9572    -1.5970     0.9773 N.ar    
  12 C12            0.1734    -1.0290     1.3638 C.ar    
  13 N13            0.2223    -0.3849     2.5882 N.3     
  14 C14           -0.7134     0.7462     2.6255 C.3     
  15 C15           -0.5288     1.5198     3.9330 C.3     
  16 C16           -0.7852     0.5819     5.1159 C.3     
  17 C17            0.1694    -0.6120     5.0267 C.3     
  18 C18           -0.0354    -1.3238     3.6875 C.3     
  19 O19           -0.5588     1.2839     6.3398 O.3     
  20 C20           -1.2074     0.8259     7.4428 C.ar    
  21 C21           -1.9540    -0.3424     7.3735 C.ar    
  22 C22           -2.6158    -0.8137     8.4926 C.ar    
  23 C23           -2.5389    -0.1255     9.6857 C.ar    
  24 C24           -1.7903     1.0508     9.7654 C.ar    
  25 C25           -1.1185     1.5219     8.6367 C.ar    
  26 C26           -1.7081     1.7680    11.0022 C.1     
  27 N27           -1.6428     2.3369    11.9833 N.1     
  28 H28            3.1532    -1.0909     1.6505 H       
  29 H29            3.1877    -0.1098     0.1657 H       
  30 H30            2.3412     0.4926     1.6110 H       
  31 H31            2.1534    -1.7374    -1.2823 H       
  32 H32           -1.3906    -4.0297    -3.4342 H       
  33 H33           -3.2388    -3.8917    -1.9855 H       
  34 H34           -0.5176     1.4076     1.7815 H       
  35 H35           -1.7360     0.3737     2.5652 H       
  36 H36            0.4896     1.9044     3.9876 H       
  37 H37           -1.2342     2.3500     3.9674 H       
  38 H38           -1.8155     0.2277     5.0832 H       
  39 H39            1.1989    -0.2610     5.0985 H       
  40 H40           -0.0372    -1.3049     5.8424 H       
  41 H41           -1.0612    -1.6866     3.6222 H       
  42 H42            0.6528    -2.1659     3.6147 H       
  43 H43           -2.0185    -0.8851     6.4420 H       
  44 H44           -3.1950    -1.7232     8.4321 H       
  45 H45           -3.0576    -0.4960    10.5576 H       
  46 H46           -0.5344     2.4285     8.6931 H       
@<TRIPOS>BOND
   1    1    2 1
   2    1   28 1
   3    1   29 1
   4    1   30 1
   5    2   12 ar
   6    2    3 ar
   7    3    4 ar
   8    3   31 1
   9    4   10 ar
  10    4    5 1
  11    5    6 2
  12    5    7 am
  13    7    8 1
  14    7   32 1
  15    8    9 2
  16    8   33 1
  17    9   10 1
  18   10   11 ar
  19   11   12 ar
  20   12   13 1
  21   13   18 1
  22   13   14 1
  23   14   15 1
  24   14   34 1
  25   14   35 1
  26   15   16 1
  27   15   36 1
  28   15   37 1
  29   16   17 1
  30   16   19 1
  31   16   38 1
  32   17   18 1
  33   17   39 1
  34   17   40 1
  35   18   41 1
  36   18   42 1
  37   19   20 1
  38   20   25 ar
  39   20   21 ar
  40   21   22 ar
  41   21   43 1
  42   22   23 ar
  43   22   44 1
  44   23   24 ar
  45   23   45 1
  46   24   25 ar
  47   24   26 1
  48   25   46 1
  49   26   27 3

#	End of record

