#	Name: ASD04910232
#	Creating user name:	WinNT
#	Creation time:	15. 06. 2019 20:55

#	Modifying user name:	WinNT
#	Modification time:	15. 06. 2019 20:55

#	Program:	/corina/corina34_cracker 3.40 0067  02.08.2006

@<TRIPOS>MOLECULE
ASD04910232
  57   59    0    0    0
SMALL
NO_CHARGES


@<TRIPOS>ATOM
   1 C1             0.0197     2.0814    -1.0072 C.2     
   2 C2            -0.0441     0.6306    -0.7546 C.ar    
   3 C3             1.1310    -0.1074    -0.5405 C.ar    
   4 C4             1.0244    -1.4518    -0.3093 C.ar    
   5 C5            -0.2371    -2.0452    -0.2931 C.ar    
   6 N6            -1.3317    -1.3254    -0.4983 N.ar    
   7 C7            -1.2744    -0.0286    -0.7190 C.ar    
   8 O8             1.0948     2.6472    -1.0312 O.2     
   9 O9            -1.1138     2.7793    -1.2169 O.3     
  10 N10           -0.3485    -3.4052    -0.0600 N.pl3   
  11 C11            0.8569    -4.2300     0.0540 C.3     
  12 C12            1.3492    -4.2162     1.5026 C.3     
  13 C13            2.6920    -4.9442     1.5918 C.3     
  14 C14            3.7507    -4.1582     0.8159 C.3     
  15 C15            3.1140    -5.0579     3.0580 C.3     
  16 C16            0.5378    -5.6450    -0.3547 C.ar    
  17 C17            1.4460    -6.3674    -1.1066 C.ar    
  18 C18            1.1564    -7.6645    -1.4828 C.ar    
  19 C19           -0.0478    -8.2430    -1.1047 C.ar    
  20 C20           -0.9574    -7.5152    -0.3494 C.ar    
  21 C21           -0.6601    -6.2202     0.0278 C.ar    
  22 N22           -0.3448    -9.5590    -1.4853 N.pl3   
  23 N23           -0.3304   -10.0625    -2.7925 N.2     
  24 C24           -0.6608   -11.3280    -2.7472 C.2     
  25 C25           -0.8962   -11.6718    -1.4115 C.2     
  26 C26           -0.6903   -10.5689    -0.6549 C.2     
  27 C27           -1.3018   -13.0317    -0.9043 C.3     
  28 F28           -1.4105   -13.9177    -1.9815 F       
  29 F29           -0.3356   -13.5026    -0.0088 F       
  30 F30           -2.5357   -12.9371    -0.2519 F       
  31 C31           -2.2656    -8.1394     0.0630 C.3     
  32 C32            2.1462    -8.4508    -2.3031 C.3     
  33 H33            2.0971     0.3750    -0.5582 H       
  34 H34            1.9093    -2.0478    -0.1413 H       
  35 H35           -2.1857     0.5287    -0.8778 H       
  36 H36           -1.0216     3.7283    -1.3783 H       
  37 H37           -1.2246    -3.8120     0.0279 H       
  38 H38            1.6338    -3.8300    -0.5976 H       
  39 H39            1.4719    -3.1854     1.8348 H       
  40 H40            0.6205    -4.7187     2.1387 H       
  41 H41            2.5936    -5.9417     1.1636 H       
  42 H42            3.4393    -4.0579    -0.2239 H       
  43 H43            3.8650    -3.1684     1.2580 H       
  44 H44            4.7021    -4.6882     0.8607 H       
  45 H45            2.3597    -5.6179     3.6108 H       
  46 H46            4.0706    -5.5765     3.1216 H       
  47 H47            3.2123    -4.0604     3.4862 H       
  48 H48            2.3825    -5.9169    -1.4004 H       
  49 H49           -1.3656    -5.6549     0.6185 H       
  50 H50           -0.7389   -11.9925    -3.5950 H       
  51 H51           -0.7866   -10.5059     0.4189 H       
  52 H52           -2.1443    -8.6343     1.0266 H       
  53 H53           -3.0277    -7.3645     0.1460 H       
  54 H54           -2.5711    -8.8708    -0.6852 H       
  55 H55            2.8278    -8.9821    -1.6388 H       
  56 H56            1.6128    -9.1687    -2.9261 H       
  57 H57            2.7141    -7.7704    -2.9376 H       
@<TRIPOS>BOND
   1    1    2 1
   2    1    8 2
   3    1    9 1
   4    2    3 ar
   5    2    7 ar
   6    3    4 ar
   7    3   33 1
   8    4    5 ar
   9    4   34 1
  10    5    6 ar
  11    5   10 1
  12    6    7 ar
  13    7   35 1
  14    9   36 1
  15   10   11 1
  16   10   37 1
  17   11   12 1
  18   11   16 1
  19   11   38 1
  20   12   13 1
  21   12   39 1
  22   12   40 1
  23   13   14 1
  24   13   15 1
  25   13   41 1
  26   14   42 1
  27   14   43 1
  28   14   44 1
  29   15   45 1
  30   15   46 1
  31   15   47 1
  32   16   17 ar
  33   16   21 ar
  34   17   18 ar
  35   17   48 1
  36   18   19 ar
  37   18   32 1
  38   19   20 ar
  39   19   22 1
  40   20   21 ar
  41   20   31 1
  42   21   49 1
  43   22   23 1
  44   22   26 1
  45   23   24 2
  46   24   25 1
  47   24   50 1
  48   25   26 2
  49   25   27 1
  50   26   51 1
  51   27   28 1
  52   27   29 1
  53   27   30 1
  54   31   52 1
  55   31   53 1
  56   31   54 1
  57   32   55 1
  58   32   56 1
  59   32   57 1

#	End of record

