#	Name: ASD00960176
#	Creating user name:	WinNT
#	Creation time:	15. 06. 2019 18:53

#	Modifying user name:	WinNT
#	Modification time:	15. 06. 2019 18:53

#	Program:	/corina/corina34_cracker 3.40 0067  02.08.2006

@<TRIPOS>MOLECULE
ASD00960176
  32   34    0    0    0
SMALL
NO_CHARGES


@<TRIPOS>ATOM
   1 C1            -0.0168     1.3886     0.0097 C.2     
   2 C2             0.0021    -0.0041     0.0020 C.2     
   3 N3             1.2752     1.8333    -0.0003 N.pl3   
   4 C4             2.1088     0.7457    -0.0141 C.2     
   5 C5             1.3256    -0.4032    -0.0128 C.2     
   6 N6             1.8447     3.1141     0.0012 N.2     
   7 C7             3.1469     3.2522    -0.0105 C.2     
   8 N8             3.9679     2.2044    -0.0244 N.2     
   9 C9             3.5075     0.9657    -0.0266 C.2     
  10 N10            4.3813    -0.1029    -0.0407 N.pl3   
  11 F11            3.6733     4.4964    -0.0089 F       
  12 C12           -1.1770     2.2045     0.0198 C.2     
  13 O13           -2.2808     1.6925     0.0229 O.2     
  14 O14           -1.0566     3.5486     0.0260 O.3     
  15 C15           -2.2669     4.3083     0.0361 C.3     
  16 C16           -1.9370     5.7787     0.0419 C.ar    
  17 C17           -1.7919     6.4592    -1.1526 C.ar    
  18 C18           -1.4892     7.8080    -1.1473 C.ar    
  19 C19           -1.3322     8.4764     0.0525 C.ar    
  20 C20           -1.4782     7.7961     1.2470 C.ar    
  21 C21           -1.7851     6.4483     1.2417 C.ar    
  22 H22           -0.8604    -0.6540     0.0073 H       
  23 H23            1.6855    -1.4214    -0.0217 H       
  24 H24            5.3386     0.0534    -0.0490 H       
  25 H25            4.0380    -1.0102    -0.0423 H       
  26 H26           -2.8524     4.0707    -0.8521 H       
  27 H27           -2.8432     4.0617     0.9279 H       
  28 H28           -1.9146     5.9370    -2.0899 H       
  29 H29           -1.3752     8.3395    -2.0805 H       
  30 H30           -1.0950     9.5300     0.0566 H       
  31 H31           -1.3551     8.3182     2.1843 H       
  32 H32           -1.9029     5.9176     2.1749 H       
@<TRIPOS>BOND
   1    1    2 2
   2    1    3 1
   3    1   12 1
   4    2    5 1
   5    2   22 1
   6    3    4 1
   7    3    6 1
   8    4    5 2
   9    4    9 1
  10    5   23 1
  11    6    7 2
  12    7    8 1
  13    7   11 1
  14    8    9 2
  15    9   10 1
  16   10   24 1
  17   10   25 1
  18   12   13 2
  19   12   14 1
  20   14   15 1
  21   15   16 1
  22   15   26 1
  23   15   27 1
  24   16   17 ar
  25   16   21 ar
  26   17   18 ar
  27   17   28 1
  28   18   19 ar
  29   18   29 1
  30   19   20 ar
  31   19   30 1
  32   20   21 ar
  33   20   31 1
  34   21   32 1

#	End of record

