#	Name: ASD02038986
#	Creating user name:	WinNT
#	Creation time:	15. 06. 2019 20:17

#	Modifying user name:	WinNT
#	Modification time:	15. 06. 2019 20:17

#	Program:	/corina/corina34_cracker 3.40 0067  02.08.2006

@<TRIPOS>MOLECULE
ASD02038986
  41   44    0    0    0
SMALL
NO_CHARGES


@<TRIPOS>ATOM
   1 N1             0.0026     1.2785    -0.2070 N.2     
   2 N2             0.0318    -0.0041    -0.3030 N.2     
   3 C3             1.2281     1.7343    -0.1151 C.2     
   4 O4             2.0535     0.6719    -0.1572 O.3     
   5 C5             1.2659    -0.4146    -0.2765 C.2     
   6 N6             1.6033     3.0608     0.0032 N.pl3   
   7 C7             0.6407     4.0702    -0.0872 C.ar    
   8 C8             1.7303    -1.8456    -0.3635 C.3     
   9 O9             1.9398    -2.1960    -1.7330 O.3     
  10 C10            2.3635    -3.4626    -1.9882 C.ar    
  11 C11            2.5877    -3.8727    -3.2959 C.ar    
  12 C12            2.5791    -4.3488    -0.9433 C.ar    
  13 C13            3.0094    -5.6344    -1.1982 C.ar    
  14 C14            3.2308    -6.0525    -2.5085 C.ar    
  15 C15            3.0169    -5.1557    -3.5478 C.ar    
  16 C16            0.8207     5.2669     0.5949 C.ar    
  17 C17           -0.4954     3.8811    -0.8638 C.ar    
  18 C18           -1.4446     4.8804    -0.9509 C.ar    
  19 C19           -1.2650     6.0683    -0.2660 C.ar    
  20 C20           -0.1324     6.2621     0.5035 C.ar    
  21 N21            3.6594    -7.2829    -3.0137 N.am    
  22 C22            3.7468    -7.2789    -4.3544 C.2     
  23 C23            3.3385    -5.8989    -4.8240 C.3     
  24 O24            4.0916    -8.2060    -5.0565 O.2     
  25 C25           -2.3026     7.1568    -0.3638 C.3     
  26 F26           -3.2530     6.9875     0.6488 F       
  27 F27           -1.6852     8.4039    -0.2201 F       
  28 F28           -2.9330     7.0894    -1.6110 F       
  29 H29            2.5345     3.2902     0.1488 H       
  30 H30            2.6640    -1.9587     0.1874 H       
  31 H31            0.9727    -2.5003     0.0672 H       
  32 H32            2.4252    -3.1861    -4.1137 H       
  33 H33            2.4096    -4.0307     0.0748 H       
  34 H34            3.1755    -6.3188    -0.3794 H       
  35 H35            1.7049     5.4186     1.1963 H       
  36 H36           -0.6361     2.9537    -1.3992 H       
  37 H37           -2.3279     4.7342    -1.5548 H       
  38 H38            0.0046     7.1908     1.0373 H       
  39 H39            3.8699    -8.0511    -2.4601 H       
  40 H40            2.4576    -5.9582    -5.4632 H       
  41 H41            4.1616    -5.4158    -5.3506 H       
@<TRIPOS>BOND
   1    1    2 1
   2    1    3 2
   3    2    5 2
   4    3    4 1
   5    3    6 1
   6    4    5 1
   7    5    8 1
   8    6    7 1
   9    6   29 1
  10    7   16 ar
  11    7   17 ar
  12    8    9 1
  13    8   30 1
  14    8   31 1
  15    9   10 1
  16   10   11 ar
  17   10   12 ar
  18   11   15 ar
  19   11   32 1
  20   12   13 ar
  21   12   33 1
  22   13   14 ar
  23   13   34 1
  24   14   15 ar
  25   14   21 1
  26   15   23 1
  27   16   20 ar
  28   16   35 1
  29   17   18 ar
  30   17   36 1
  31   18   19 ar
  32   18   37 1
  33   19   20 ar
  34   19   25 1
  35   20   38 1
  36   21   22 am
  37   21   39 1
  38   22   23 1
  39   22   24 2
  40   23   40 1
  41   23   41 1
  42   25   26 1
  43   25   27 1
  44   25   28 1

#	End of record

