#	Name: ASD01000163
#	Creating user name:	WinNT
#	Creation time:	15. 06. 2019 18:54

#	Modifying user name:	WinNT
#	Modification time:	15. 06. 2019 18:54

#	Program:	/corina/corina34_cracker 3.40 0067  02.08.2006

@<TRIPOS>MOLECULE
ASD01000163
  59   63    0    0    0
SMALL
NO_CHARGES


@<TRIPOS>ATOM
   1 C1            -0.4874     1.4027     0.2678 C.ar    
   2 C2            -1.7090    -1.1653     1.4441 C.ar    
   3 C3             0.0013     0.0066     0.0098 C.3     
   4 C4            -1.3304     4.0032     0.7599 C.ar    
   5 C5            -2.2624     2.9987     0.6201 C.ar    
   6 C6            -1.8471     1.6833     0.3673 C.ar    
   7 C7             0.4373     2.4210     0.4134 C.ar    
   8 C8             0.0194     3.7158     0.6580 C.ar    
   9 C9            -2.0196    -2.0097     2.5198 C.ar    
  10 C10           -1.0112    -2.5777     3.2665 C.ar    
  11 C11            0.3121    -2.3162     2.9574 C.ar    
  12 C12            0.6267    -1.4832     1.9000 C.ar    
  13 C13           -0.3754    -0.9038     1.1430 C.ar    
  14 C14           -0.6144    -0.5074    -1.2660 C.ar    
  15 C15           -0.5679    -1.8587    -1.5580 C.ar    
  16 C16           -1.1302    -2.3349    -2.7250 C.ar    
  17 C17           -1.7460    -1.4518    -3.6095 C.ar    
  18 C18           -1.7904    -0.0917    -3.3101 C.ar    
  19 C19           -1.2291     0.3730    -2.1380 C.ar    
  20 S20            1.8069     0.0277    -0.1640 S.3     
  21 C21            2.0591     0.9807    -1.6867 C.3     
  22 C22            3.5565     1.2066    -1.9048 C.3     
  23 C23            3.7661     1.9984    -3.1698 C.2     
  24 N24            4.1108     1.9492    -0.7649 N.3     
  25 O25            3.7194     1.3834    -4.3620 O.3     
  26 O26            3.9761     3.1868    -3.1109 O.2     
  27 C27           -2.8608     0.6389     0.2039 C.2     
  28 C28           -2.7984    -0.5874     0.6708 C.2     
  29 C29           -2.3518    -1.9578    -4.8660 C.ar    
  30 C30           -2.8771    -3.7839    -6.3330 C.ar    
  31 C31           -2.3121    -3.3186    -5.1629 C.ar    
  32 C32           -2.9676    -1.0747    -5.7506 C.ar    
  33 C33           -3.5295    -1.5509    -6.9178 C.ar    
  34 C34           -3.4825    -2.9020    -7.2100 C.ar    
  35 H35           -1.6532     5.0153     0.9541 H       
  36 H36           -3.3152     3.2253     0.7008 H       
  37 H37            1.4922     2.2032     0.3359 H       
  38 H38            0.7480     4.5058     0.7654 H       
  39 H39           -3.0516    -2.2147     2.7635 H       
  40 H40           -1.2534    -3.2276     4.0943 H       
  41 H41            1.1009    -2.7641     3.5435 H       
  42 H42            1.6615    -1.2833     1.6638 H       
  43 H43           -0.0903    -2.5423    -0.8717 H       
  44 H44           -1.0927    -3.3900    -2.9524 H       
  45 H45           -2.2661     0.5972    -3.9924 H       
  46 H46           -1.2665     1.4264    -1.9030 H       
  47 H47            1.6478     0.4297    -2.5325 H       
  48 H48            1.5552     1.9434    -1.6005 H       
  49 H49            4.0605     0.2440    -1.9910 H       
  50 H50            3.6597     2.8460    -0.6638 H       
  51 H51            4.0406     1.4111     0.0857 H       
  52 H52            3.8598     1.9328    -5.1452 H       
  53 H53           -3.7464     0.9029    -0.3549 H       
  54 H54           -3.6378    -1.2328     0.4580 H       
  55 H55           -2.8469    -4.8384    -6.5641 H       
  56 H56           -1.8396    -4.0080    -4.4788 H       
  57 H57           -3.0055    -0.0196    -5.5230 H       
  58 H58           -4.0070    -0.8672    -7.6041 H       
  59 H59           -3.9234    -3.2703    -8.1246 H       
@<TRIPOS>BOND
   1    1    3 1
   2    1    7 ar
   3    1    6 ar
   4    2    9 ar
   5    2   13 ar
   6    2   28 1
   7    3   14 1
   8    3   20 1
   9    3   13 1
  10    4    5 ar
  11    4    8 ar
  12    4   35 1
  13    5    6 ar
  14    5   36 1
  15    6   27 1
  16    7    8 ar
  17    7   37 1
  18    8   38 1
  19    9   10 ar
  20    9   39 1
  21   10   11 ar
  22   10   40 1
  23   11   12 ar
  24   11   41 1
  25   12   13 ar
  26   12   42 1
  27   14   15 ar
  28   14   19 ar
  29   15   16 ar
  30   15   43 1
  31   16   17 ar
  32   16   44 1
  33   17   18 ar
  34   17   29 1
  35   18   19 ar
  36   18   45 1
  37   19   46 1
  38   20   21 1
  39   21   22 1
  40   21   47 1
  41   21   48 1
  42   22   23 1
  43   22   24 1
  44   22   49 1
  45   23   25 1
  46   23   26 2
  47   24   50 1
  48   24   51 1
  49   25   52 1
  50   27   28 2
  51   27   53 1
  52   28   54 1
  53   29   32 ar
  54   29   31 ar
  55   30   31 ar
  56   30   34 ar
  57   30   55 1
  58   31   56 1
  59   32   33 ar
  60   32   57 1
  61   33   34 ar
  62   33   58 1
  63   34   59 1

#	End of record

