#	Name: ASD07930573
#	Creating user name:	WinNT
#	Creation time:	15. 06. 2019 21:12

#	Modifying user name:	WinNT
#	Modification time:	15. 06. 2019 21:12

#	Program:	/corina/corina34_cracker 3.40 0067  02.08.2006

@<TRIPOS>MOLECULE
ASD07930573
  48   50    0    0    0
SMALL
NO_CHARGES


@<TRIPOS>ATOM
   1 C1             1.3694     0.7526    -1.5472 C.3     
   2 N2             2.3133    -2.0773    -1.4376 N.2     
   3 N3             0.0354    -2.5823    -1.3054 N.pl3   
   4 C4            -0.8997    -2.7429    -0.1870 C.3     
   5 C5            -1.5452    -1.3872     0.1316 C.3     
   6 S6            -0.2179    -0.1886     0.4724 S.o2    
   7 N7             0.8028    -0.3916    -0.8289 N.am    
   8 C8             1.0893    -1.6980    -1.1989 C.2     
   9 C9            -0.1434    -3.2502     1.0425 C.3     
  10 C10           -1.9705    -3.7338    -0.5646 C.ar    
  11 C11           -1.6886    -4.7476    -1.4613 C.ar    
  12 C12           -2.6781    -5.6614    -1.8088 C.ar    
  13 C13           -3.9455    -5.5525    -1.2541 C.ar    
  14 C14           -4.2222    -4.5375    -0.3582 C.ar    
  15 C15           -3.2350    -3.6319    -0.0088 C.ar    
  16 O16           -0.6967     1.1433     0.3468 O.2     
  17 O17            0.5511    -0.5938     1.5965 O.2     
  18 F18           -3.5087    -2.6406     0.8673 F       
  19 N19           -2.3960    -6.6893    -2.7173 N.am    
  20 C20           -3.3926    -7.2517    -3.4293 C.2     
  21 O21           -4.5198    -6.8024    -3.3570 O.2     
  22 C22           -3.1148    -8.4154    -4.2984 C.ar    
  23 N23           -1.8800    -8.9082    -4.3780 N.ar    
  24 N24           -3.8970   -10.0404    -5.8067 N.ar    
  25 C25           -4.1466    -9.0013    -5.0310 C.ar    
  26 C26           -1.6337    -9.9435    -5.1515 C.ar    
  27 C27           -2.6657   -10.5260    -5.8890 C.ar    
  28 O28           -2.4106   -11.5925    -6.6848 O.3     
  29 C29           -3.5134   -12.1385    -7.4112 C.3     
  30 H30           -3.1725   -12.9851    -8.0071 H       
  31 H31           -4.2799   -12.4719    -6.7116 H       
  32 H32           -3.9291   -11.3751    -8.0688 H       
  33 F33           -0.4538    -4.8504    -1.9998 F       
  34 H34            2.3184     1.0343    -1.0909 H       
  35 H35            1.5340     0.4816    -2.5901 H       
  36 H36            0.6775     1.5931    -1.4951 H       
  37 H37            3.0422    -1.4422    -1.3576 H       
  38 H38           -0.0844    -3.0998    -2.1170 H       
  39 H39           -2.1338    -1.0508    -0.7220 H       
  40 H40           -2.1877    -1.4827     1.0069 H       
  41 H41            0.6913    -2.5827     1.2566 H       
  42 H42           -0.8174    -3.2753     1.8988 H       
  43 H43            0.2346    -4.2539     0.8481 H       
  44 H44           -4.7154    -6.2607    -1.5227 H       
  45 H45           -5.2086    -4.4531     0.0733 H       
  46 H46           -1.4833    -6.9964    -2.8340 H       
  47 H47           -5.1493    -8.6057    -4.9637 H       
  48 H48           -0.6323   -10.3427    -5.2162 H       
@<TRIPOS>BOND
   1    1    7 1
   2    1   34 1
   3    1   35 1
   4    1   36 1
   5    2    8 2
   6    2   37 1
   7    3    4 1
   8    3    8 1
   9    3   38 1
  10    4    5 1
  11    4    9 1
  12    4   10 1
  13    5    6 1
  14    5   39 1
  15    5   40 1
  16    6    7 am
  17    6   16 2
  18    6   17 2
  19    7    8 1
  20    9   41 1
  21    9   42 1
  22    9   43 1
  23   10   11 ar
  24   10   15 ar
  25   11   12 ar
  26   11   33 1
  27   12   13 ar
  28   12   19 1
  29   13   14 ar
  30   13   44 1
  31   14   15 ar
  32   14   45 1
  33   15   18 1
  34   19   20 am
  35   19   46 1
  36   20   21 2
  37   20   22 1
  38   22   23 ar
  39   22   25 ar
  40   23   26 ar
  41   24   25 ar
  42   24   27 ar
  43   25   47 1
  44   26   27 ar
  45   26   48 1
  46   27   28 1
  47   28   29 1
  48   29   30 1
  49   29   31 1
  50   29   32 1

#	End of record

