#	Name: ASD01883175
#	Creating user name:	WinNT
#	Creation time:	15. 06. 2019 19:45

#	Modifying user name:	WinNT
#	Modification time:	15. 06. 2019 19:45

#	Program:	/corina/corina34_cracker 3.40 0067  02.08.2006

@<TRIPOS>MOLECULE
ASD01883175
  57   58    0    0    0
SMALL
NO_CHARGES


@<TRIPOS>ATOM
   1 N1            -1.3655     2.9411    -0.4563 N.am    
   2 C2            -1.1297     1.6353    -0.6813 C.2     
   3 C3            -2.1909     0.7005    -0.5956 C.2     
   4 C4            -3.4775     1.1679    -0.2738 C.2     
   5 C5            -3.6598     2.5468    -0.0497 C.2     
   6 C6            -2.6073     3.3909    -0.1407 C.2     
   7 O7            -0.0043     1.2572    -0.9589 O.2     
   8 C8            -1.9580    -0.6924    -0.8323 C.1     
   9 N9            -1.7732    -1.7975    -1.0201 N.1     
  10 C10           -0.2584     3.8962    -0.5480 C.3     
  11 C11           -0.1537     4.4195    -1.9819 C.3     
  12 C12            1.0025     5.4170    -2.0776 C.3     
  13 C13            1.1869     5.8457    -3.5347 C.3     
  14 C14            0.6890     6.6449    -1.2204 C.3     
  15 C15           -4.6160     0.2313    -0.1734 C.ar    
  16 C16           -4.6317    -0.7466     0.8234 C.ar    
  17 C17           -5.6949    -1.6194     0.9162 C.ar    
  18 C18           -6.7508    -1.5292     0.0204 C.ar    
  19 C19           -6.7412    -0.5555    -0.9775 C.ar    
  20 C20           -5.6819     0.3260    -1.0719 C.ar    
  21 O21           -7.7960    -2.3919     0.1156 O.3     
  22 C22           -7.7411    -3.3647     1.1608 C.3     
  23 C23           -8.9953    -4.2396     1.1097 C.3     
  24 N24           -9.0012    -5.0145    -0.1383 N.3     
  25 C25           -8.0504    -6.1321    -0.0685 C.3     
  26 C26          -10.3536    -5.4929    -0.4545 C.3     
  27 O27           -7.7773    -0.4699    -1.8542 O.3     
  28 C28           -7.7013     0.5515    -2.8507 C.3     
  29 H29           -4.6389     2.9290     0.1988 H       
  30 H30           -2.7590     4.4458     0.0336 H       
  31 H31           -0.4404     4.7295     0.1306 H       
  32 H32            0.6727     3.4005    -0.2732 H       
  33 H33            0.0283     3.5861    -2.6604 H       
  34 H34           -1.0848     4.9151    -2.2566 H       
  35 H35            1.9182     4.9473    -1.7184 H       
  36 H36            0.2712     6.3154    -3.8939 H       
  37 H37            2.0106     6.5563    -3.6029 H       
  38 H38            1.4102     4.9709    -4.1453 H       
  39 H39           -0.2267     7.1146    -1.5796 H       
  40 H40            0.5577     6.3395    -0.1824 H       
  41 H41            1.5127     7.3555    -1.2886 H       
  42 H42           -3.8108    -0.8193     1.5214 H       
  43 H43           -5.7058    -2.3753     1.6875 H       
  44 H44           -5.6733     1.0810    -1.8441 H       
  45 H45           -6.8571    -3.9889     1.0301 H       
  46 H46           -7.6897    -2.8594     2.1252 H       
  47 H47           -8.9979    -4.9209     1.9605 H       
  48 H48           -9.8817    -3.6064     1.1484 H       
  49 H49           -8.3253    -6.7922     0.7542 H       
  50 H50           -8.0750    -6.6891    -1.0051 H       
  51 H51           -7.0453    -5.7442     0.0973 H       
  52 H52          -11.0257    -4.6409    -0.5571 H       
  53 H53          -10.3316    -6.0529    -1.3893 H       
  54 H54          -10.7071    -6.1399     0.3484 H       
  55 H55           -7.6451     1.5269    -2.3676 H       
  56 H56           -6.8122     0.3971    -3.4621 H       
  57 H57           -8.5885     0.5095    -3.4824 H       
@<TRIPOS>BOND
   1    1    2 am
   2    1   10 1
   3    1    6 1
   4    2    3 1
   5    2    7 2
   6    3    4 2
   7    3    8 1
   8    4    5 1
   9    4   15 1
  10    5    6 2
  11    5   29 1
  12    6   30 1
  13    8    9 3
  14   10   11 1
  15   10   31 1
  16   10   32 1
  17   11   12 1
  18   11   33 1
  19   11   34 1
  20   12   13 1
  21   12   14 1
  22   12   35 1
  23   13   36 1
  24   13   37 1
  25   13   38 1
  26   14   39 1
  27   14   40 1
  28   14   41 1
  29   15   16 ar
  30   15   20 ar
  31   16   17 ar
  32   16   42 1
  33   17   18 ar
  34   17   43 1
  35   18   19 ar
  36   18   21 1
  37   19   20 ar
  38   19   27 1
  39   20   44 1
  40   21   22 1
  41   22   23 1
  42   22   45 1
  43   22   46 1
  44   23   24 1
  45   23   47 1
  46   23   48 1
  47   24   25 1
  48   24   26 1
  49   25   49 1
  50   25   50 1
  51   25   51 1
  52   26   52 1
  53   26   53 1
  54   26   54 1
  55   27   28 1
  56   28   55 1
  57   28   56 1
  58   28   57 1

#	End of record

