#	Name: ASD03740137
#	Creating user name:	WinNT
#	Creation time:	15. 06. 2019 20:46

#	Modifying user name:	WinNT
#	Modification time:	15. 06. 2019 20:46

#	Program:	/corina/corina34_cracker 3.40 0067  02.08.2006

@<TRIPOS>MOLECULE
ASD03740137
  30   32    0    0    0
SMALL
NO_CHARGES


@<TRIPOS>ATOM
   1 C1            -0.0169     1.3936     0.0097 C.ar    
   2 C2             0.0021    -0.0041     0.0020 C.ar    
   3 C3            -1.1419    -0.7347     0.0090 C.ar    
   4 C4            -2.3898    -0.0755     0.0245 C.ar    
   5 C5            -2.4084     1.3957     0.0325 C.ar    
   6 C6            -1.1801     2.0908     0.0302 C.ar    
   7 N7            -3.6494    -0.4723     0.0344 N.2     
   8 N8            -4.4807     0.6535     0.0484 N.pl3   
   9 C9            -3.7393     1.7695     0.0473 C.2     
  10 C10           -6.6337    -1.5650    -0.9517 C.ar    
  11 C11           -6.4386    -0.2046    -1.1004 C.ar    
  12 C12           -6.6963     0.4026    -2.3153 C.ar    
  13 C13           -7.1493    -0.3504    -3.3822 C.ar    
  14 C14           -7.3448    -1.7120    -3.2340 C.ar    
  15 C15           -7.0867    -2.3191    -2.0178 C.ar    
  16 C16           -5.9452     0.6171     0.0626 C.3     
  17 Cl17          -7.9142    -2.6584    -4.5733 Cl      
  18 Cl18           1.5301    -0.8278    -0.0176 Cl      
  19 N19            1.2659     2.1320     0.0014 N.pl3   
  20 O20            1.2677     3.3500     0.0079 O.2     
  21 O21            2.3199     1.5216    -0.0119 O.2     
  22 H22           -1.0975    -1.8138     0.0024 H       
  23 H23           -1.1666     3.1707     0.0359 H       
  24 H24           -4.1149     2.7821     0.0563 H       
  25 H25           -6.4280    -2.0395    -0.0036 H       
  26 H26           -6.5440     1.4655    -2.4308 H       
  27 H27           -7.3509     0.1240    -4.3312 H       
  28 H28           -7.2387    -3.3820    -1.9016 H       
  29 H29           -6.2885     0.1695     0.9953 H       
  30 H30           -6.3347     1.6319    -0.0184 H       
@<TRIPOS>BOND
   1    1    2 ar
   2    1   19 1
   3    1    6 ar
   4    2    3 ar
   5    2   18 1
   6    3    4 ar
   7    3   22 1
   8    4    5 ar
   9    4    7 2
  10    5    6 ar
  11    5    9 2
  12    6   23 1
  13    7    8 1
  14    8    9 1
  15    8   16 1
  16    9   24 1
  17   10   11 ar
  18   10   15 ar
  19   10   25 1
  20   11   12 ar
  21   11   16 1
  22   12   13 ar
  23   12   26 1
  24   13   14 ar
  25   13   27 1
  26   14   15 ar
  27   14   17 1
  28   15   28 1
  29   16   29 1
  30   16   30 1
  31   19   20 2
  32   19   21 2

#	End of record

