#	Name: ASD05430594
#	Creating user name:	WinNT
#	Creation time:	15. 06. 2019 21:00

#	Modifying user name:	WinNT
#	Modification time:	15. 06. 2019 21:00

#	Program:	/corina/corina34_cracker 3.40 0067  02.08.2006

@<TRIPOS>MOLECULE
ASD05430594
  35   37    0    0    0
SMALL
NO_CHARGES


@<TRIPOS>ATOM
   1 N1            -0.0158     1.3165     0.0093 N.ar    
   2 C2             0.0021    -0.0041     0.0020 C.ar    
   3 C3             1.0972     2.0203     0.0024 C.ar    
   4 C4             2.3482     1.3918     0.0034 C.ar    
   5 C5             2.3942     0.0049    -0.0109 C.ar    
   6 C6             1.1973    -0.6965    -0.0120 C.ar    
   7 C7             1.2010    -2.2034    -0.0288 C.3     
   8 C8             1.9305    -2.7255     1.2106 C.3     
   9 C9            -0.2402    -2.7170    -0.0264 C.3     
  10 C10            1.9164    -2.6976    -1.2877 C.3     
  11 N11            1.0906     3.4172    -0.0301 N.pl3   
  12 C12            2.2393     4.1122    -0.3159 C.2     
  13 C13            3.5348     3.3946    -0.6063 C.3     
  14 O14            3.4942     2.1161     0.0384 O.3     
  15 C15            0.1083     4.3262     0.1790 C.2     
  16 C16            0.6694     5.5451     0.0200 C.2     
  17 N17            1.9702     5.3758    -0.2807 N.2     
  18 C18           -0.0401     6.8677     0.1557 C.3     
  19 H19           -0.9299    -0.5497     0.0074 H       
  20 H20            3.3400    -0.5164    -0.0214 H       
  21 H21            1.4208    -2.3733     2.1075 H       
  22 H22            1.9332    -3.8154     1.1985 H       
  23 H23            2.9573    -2.3596     1.2089 H       
  24 H24           -0.7600    -2.3450    -0.9094 H       
  25 H25           -0.2376    -3.8069    -0.0385 H       
  26 H26           -0.7499    -2.3649     0.8705 H       
  27 H27            2.9432    -2.3317    -1.2894 H       
  28 H28            1.9191    -3.7875    -1.2998 H       
  29 H29            1.3967    -2.3257    -2.1706 H       
  30 H30            3.6475     3.2606    -1.6822 H       
  31 H31            4.3716     3.9753    -0.2181 H       
  32 H32           -0.9226     4.1174     0.4242 H       
  33 H33            0.0227     7.2094     1.1888 H       
  34 H34            0.4305     7.6013    -0.4989 H       
  35 H35           -1.0867     6.7491    -0.1248 H       
@<TRIPOS>BOND
   1    1    2 ar
   2    1    3 ar
   3    2    6 ar
   4    2   19 1
   5    3    4 ar
   6    3   11 1
   7    4    5 ar
   8    4   14 1
   9    5    6 ar
  10    5   20 1
  11    6    7 1
  12    7    8 1
  13    7    9 1
  14    7   10 1
  15    8   21 1
  16    8   22 1
  17    8   23 1
  18    9   24 1
  19    9   25 1
  20    9   26 1
  21   10   27 1
  22   10   28 1
  23   10   29 1
  24   11   12 1
  25   11   15 1
  26   12   13 1
  27   12   17 2
  28   13   14 1
  29   13   30 1
  30   13   31 1
  31   15   16 2
  32   15   32 1
  33   16   17 1
  34   16   18 1
  35   18   33 1
  36   18   34 1
  37   18   35 1

#	End of record

