#	Name: ASD01916068
#	Creating user name:	WinNT
#	Creation time:	15. 06. 2019 20:06

#	Modifying user name:	WinNT
#	Modification time:	15. 06. 2019 20:06

#	Program:	/corina/corina34_cracker 3.40 0067  02.08.2006

@<TRIPOS>MOLECULE
ASD01916068
  47   49    0    0    0
SMALL
NO_CHARGES


@<TRIPOS>ATOM
   1 C1            -0.0315     1.4421    -0.0619 C.ar    
   2 C2            -0.8903     1.5424    -1.1650 C.ar    
   3 C3            -2.0865     0.8490    -1.1293 C.ar    
   4 C4            -2.3945     0.0859    -0.0169 C.ar    
   5 C5            -3.6972    -0.6707     0.0248 C.3     
   6 C6             1.2190     2.1397    -0.0465 C.1     
   7 C7             2.2442     2.7115    -0.0338 C.1     
   8 C8             3.4947     3.4091    -0.0184 C.ar    
   9 C9             4.3443     3.3030     1.0859 C.ar    
  10 C10            5.0798     4.8636    -1.0881 C.ar    
  11 C11            5.5471     3.9777     1.0937 C.ar    
  12 N12           -1.5670     0.0091     1.0076 N.ar    
  13 C13           -0.4193     0.6545     1.0248 C.ar    
  14 C14            3.8740     4.1946    -1.1101 C.ar    
  15 C15            5.9134     4.7584     0.0114 C.ar    
  16 C16           -4.8919     0.3103     0.0613 C.3     
  17 C17           -3.8165    -1.4488     1.3167 C.2     
  18 N18           -5.0446    -1.2909     1.8397 N.am    
  19 C19           -5.8776    -0.4283     0.9936 C.3     
  20 O20           -3.8024    -1.5453    -1.1004 O.3     
  21 O21           -2.9328    -2.1181     1.8086 O.2     
  22 C22           -5.4941    -1.9018     3.0931 C.3     
  23 C23           -6.8512    -1.2747     0.1709 C.3     
  24 C24           -6.6454     0.5763     1.8551 C.3     
  25 C25           -2.7210    -2.4717    -1.2196 C.3     
  26 H26           -0.6250     2.1457    -2.0206 H       
  27 H27           -2.7733     0.9028    -1.9610 H       
  28 H28            4.0595     2.6944     1.9315 H       
  29 H29            5.3724     5.4744    -1.9294 H       
  30 H30            6.2046     3.8970     1.9467 H       
  31 H31            0.2317     0.5667     1.8820 H       
  32 H32            3.2245     4.2774    -1.9691 H       
  33 H33            6.8565     5.2845     0.0230 H       
  34 H34           -4.5964     1.2692     0.4872 H       
  35 H35           -5.3192     0.4418    -0.9328 H       
  36 H36           -4.6836    -2.4920     3.5208 H       
  37 H37           -5.7837    -1.1199     3.7951 H       
  38 H38           -6.3494    -2.5481     2.8961 H       
  39 H39           -7.5115    -1.8241     0.8418 H       
  40 H40           -7.4451    -0.6242    -0.4712 H       
  41 H41           -6.2905    -1.9786    -0.4441 H       
  42 H42           -5.9395     1.1777     2.4280 H       
  43 H43           -7.2393     1.2265     1.2129 H       
  44 H44           -7.3042     0.0403     2.5383 H       
  45 H45           -2.6299    -3.0446    -0.2967 H       
  46 H46           -2.9136    -3.1500    -2.0508 H       
  47 H47           -1.7945    -1.9272    -1.4021 H       
@<TRIPOS>BOND
   1    1    2 ar
   2    1    6 1
   3    1   13 ar
   4    2    3 ar
   5    2   26 1
   6    3    4 ar
   7    3   27 1
   8    4   12 ar
   9    4    5 1
  10    5   16 1
  11    5   17 1
  12    5   20 1
  13    6    7 3
  14    7    8 1
  15    8    9 ar
  16    8   14 ar
  17    9   11 ar
  18    9   28 1
  19   10   15 ar
  20   10   14 ar
  21   10   29 1
  22   11   15 ar
  23   11   30 1
  24   12   13 ar
  25   13   31 1
  26   14   32 1
  27   15   33 1
  28   16   19 1
  29   16   34 1
  30   16   35 1
  31   17   18 am
  32   17   21 2
  33   18   19 1
  34   18   22 1
  35   19   23 1
  36   19   24 1
  37   20   25 1
  38   22   36 1
  39   22   37 1
  40   22   38 1
  41   23   39 1
  42   23   40 1
  43   23   41 1
  44   24   42 1
  45   24   43 1
  46   24   44 1
  47   25   45 1
  48   25   46 1
  49   25   47 1

#	End of record

