#	Name: ASD06620024
#	Creating user name:	WinNT
#	Creation time:	15. 06. 2019 21:07

#	Modifying user name:	WinNT
#	Modification time:	15. 06. 2019 21:07

#	Program:	/corina/corina34_cracker 3.40 0067  02.08.2006

@<TRIPOS>MOLECULE
ASD06620024
  56   60    0    0    0
SMALL
NO_CHARGES


@<TRIPOS>ATOM
   1 C1            -0.7762    -3.5005    -0.5163 C.ar    
   2 C2            -0.3193    -2.2179    -0.2686 C.ar    
   3 C3             1.0603    -1.9850    -0.2203 C.ar    
   4 C4             1.9217    -3.0557    -0.4239 C.ar    
   5 C5             1.3851    -4.3046    -0.6653 C.ar    
   6 N6             0.0782    -4.4890    -0.7041 N.ar    
   7 C7             0.0175    -0.0633     0.1464 C.2     
   8 N8            -0.9393    -0.9943    -0.0350 N.am    
   9 N9             1.2328    -0.6347     0.0396 N.am    
  10 O10           -0.1853     1.1151     0.3717 O.2     
  11 C11           -2.3846    -0.7586     0.0061 C.3     
  12 C12           -3.6502    -0.9620    -3.3861 C.2     
  13 C13           -4.1142    -1.5150    -4.5965 C.2     
  14 C14           -4.4644    -0.6863    -5.6166 C.2     
  15 C15           -4.3593     0.7046    -5.4506 C.2     
  16 C16           -3.9131     1.2195    -4.2857 C.2     
  17 N17           -3.5586     0.3994    -3.2539 N.pl3   
  18 N18           -3.2432    -1.5128    -2.2511 N.2     
  19 C19           -2.8993    -0.5481    -1.3945 C.2     
  20 C20           -3.0856     0.6481    -1.9942 C.2     
  21 C21           -2.8199     2.0028    -1.3898 C.3     
  22 C22           -4.1204     2.5695    -0.8167 C.3     
  23 C23           -3.8506     3.9449    -0.2031 C.3     
  24 C24            2.5185     0.0542     0.1761 C.3     
  25 C25            2.8168     1.1931    -0.8010 C.3     
  26 C26            2.4946     1.5048     0.6619 C.3     
  27 C27           -5.1511     4.5116     0.3701 C.3     
  28 C28           -5.6208     3.6348     1.5326 C.3     
  29 C29           -4.9091     5.9367     0.8715 C.3     
  30 H30           -1.8380    -3.6947    -0.5517 H       
  31 H31            2.9919    -2.9135    -0.3942 H       
  32 H32            2.0451    -5.1444    -0.8254 H       
  33 H33           -2.8810    -1.6217     0.4498 H       
  34 H34           -2.5913     0.1275     0.6062 H       
  35 H35           -4.1905    -2.5860    -4.7130 H       
  36 H36           -4.8212    -1.0958    -6.5501 H       
  37 H37           -4.6367     1.3649    -6.2589 H       
  38 H38           -3.8359     2.2903    -4.1688 H       
  39 H39           -2.0829     1.9067    -0.5925 H       
  40 H40           -2.4382     2.6750    -2.1583 H       
  41 H41           -4.8573     2.6656    -1.6140 H       
  42 H42           -4.5021     1.8973    -0.0482 H       
  43 H43           -3.1136     3.8488     0.5942 H       
  44 H44           -3.4689     4.6171    -0.9716 H       
  45 H45            3.3546    -0.5693     0.4927 H       
  46 H46            3.8493     1.3192    -1.1268 H       
  47 H47            2.0565     1.4299    -1.5453 H       
  48 H48            1.5223     1.9466     0.8799 H       
  49 H49            3.3151     1.8359     1.2984 H       
  50 H50           -5.9153     4.5247    -0.4070 H       
  51 H51           -5.7932     2.6195     1.1754 H       
  52 H52           -4.8566     3.6217     2.3097 H       
  53 H53           -6.5473     4.0385     1.9409 H       
  54 H54           -4.5744     6.5613     0.0433 H       
  55 H55           -5.8355     6.3404     1.2798 H       
  56 H56           -4.1448     5.9236     1.6486 H       
@<TRIPOS>BOND
   1    1    2 ar
   2    1    6 ar
   3    1   30 1
   4    2    3 ar
   5    2    8 1
   6    3    4 ar
   7    3    9 1
   8    4    5 ar
   9    4   31 1
  10    5    6 ar
  11    5   32 1
  12    7    8 am
  13    7    9 am
  14    7   10 2
  15    8   11 1
  16    9   24 1
  17   11   19 1
  18   11   33 1
  19   11   34 1
  20   12   13 1
  21   12   17 1
  22   12   18 2
  23   13   14 2
  24   13   35 1
  25   14   15 1
  26   14   36 1
  27   15   16 2
  28   15   37 1
  29   16   17 1
  30   16   38 1
  31   17   20 1
  32   18   19 1
  33   19   20 2
  34   20   21 1
  35   21   22 1
  36   21   39 1
  37   21   40 1
  38   22   23 1
  39   22   41 1
  40   22   42 1
  41   23   27 1
  42   23   43 1
  43   23   44 1
  44   24   25 1
  45   24   26 1
  46   24   45 1
  47   25   26 1
  48   25   46 1
  49   25   47 1
  50   26   48 1
  51   26   49 1
  52   27   28 1
  53   27   29 1
  54   27   50 1
  55   28   51 1
  56   28   52 1
  57   28   53 1
  58   29   54 1
  59   29   55 1
  60   29   56 1

#	End of record

