#	Name: ASD01911730
#	Creating user name:	WinNT
#	Creation time:	15. 06. 2019 19:58

#	Modifying user name:	WinNT
#	Modification time:	15. 06. 2019 19:58

#	Program:	/corina/corina34_cracker 3.40 0067  02.08.2006

@<TRIPOS>MOLECULE
ASD01911730
  34   36    0    0    0
SMALL
NO_CHARGES


@<TRIPOS>ATOM
   1 N1             0.0321     1.1525    -0.6893 N.am    
   2 C2             0.0021    -0.0041     0.0020 C.2     
   3 C3            -1.2495    -0.7536     0.1204 C.2     
   4 C4            -1.3846    -2.1126     0.0309 C.2     
   5 S5            -2.8457    -0.0649     0.4109 S.3     
   6 C6            -3.5473    -1.6799     0.3759 C.2     
   7 N7            -2.6000    -2.5621     0.1681 N.2     
   8 C8            -4.9356    -1.9829     0.5528 C.1     
   9 C9            -6.0739    -2.2313     0.6979 C.1     
  10 C10           -7.4622    -2.5343     0.8748 C.2     
  11 C11           -7.9646    -3.7983     0.8406 C.2     
  12 O12            1.0160    -0.4253     0.5280 O.2     
  13 C13           -1.1486     1.6100    -1.4346 C.3     
  14 C14           -1.4873     3.0375    -0.9937 C.3     
  15 C15           -0.2531     3.9262    -1.1642 C.3     
  16 C16            0.8804     3.4033    -0.2788 C.3     
  17 C17            1.2441     1.9828    -0.7070 C.3     
  18 S18           -9.6510    -3.7870     1.0878 S.3     
  19 C19           -9.6926    -2.0393     1.2425 C.2     
  20 C20           -8.4724    -1.5300     1.1140 C.2     
  21 H21           -0.5428    -2.7667    -0.1418 H       
  22 H22           -7.3747    -4.6883     0.6785 H       
  23 H23           -0.9331     1.5990    -2.5030 H       
  24 H24           -1.9917     0.9525    -1.2229 H       
  25 H25           -2.3014     3.4241    -1.6067 H       
  26 H26           -1.7902     3.0327     0.0534 H       
  27 H27            0.0641     3.9110    -2.2069 H       
  28 H28           -0.4984     4.9479    -0.8744 H       
  29 H29            1.7515     4.0503    -0.3830 H       
  30 H30            0.5552     3.3950     0.7615 H       
  31 H31            1.9809     1.5707    -0.0175 H       
  32 H32            1.6546     1.9993    -1.7166 H       
  33 H33          -10.5855    -1.4589     1.4222 H       
  34 H34           -8.2588    -0.4730     1.1745 H       
@<TRIPOS>BOND
   1    1    2 am
   2    1   13 1
   3    1   17 1
   4    2    3 1
   5    2   12 2
   6    3    4 2
   7    3    5 1
   8    4    7 1
   9    4   21 1
  10    5    6 1
  11    6    7 2
  12    6    8 1
  13    8    9 3
  14    9   10 1
  15   10   11 2
  16   10   20 1
  17   11   18 1
  18   11   22 1
  19   13   14 1
  20   13   23 1
  21   13   24 1
  22   14   15 1
  23   14   25 1
  24   14   26 1
  25   15   16 1
  26   15   27 1
  27   15   28 1
  28   16   17 1
  29   16   29 1
  30   16   30 1
  31   17   31 1
  32   17   32 1
  33   18   19 1
  34   19   20 2
  35   19   33 1
  36   20   34 1

#	End of record

