#	Name: ASD00740017
#	Creating user name:	WinNT
#	Creation time:	15. 06. 2019 18:37

#	Modifying user name:	WinNT
#	Modification time:	15. 06. 2019 18:37

#	Program:	/corina/corina34_cracker 3.40 0067  02.08.2006

@<TRIPOS>MOLECULE
ASD00740017
  76   80    0    0    0
SMALL
NO_CHARGES


@<TRIPOS>ATOM
   1 C1             0.3586     1.4779    -0.1514 C.ar    
   2 C2             1.1509     1.5055     0.9997 C.ar    
   3 C3             0.6702     2.0114     2.1693 C.ar    
   4 C4            -0.6369     2.5135     2.2266 C.ar    
   5 C5            -1.4451     2.4890     1.0635 C.ar    
   6 C6            -0.9307     1.9702    -0.1286 C.ar    
   7 N7            -1.1518     3.0207     3.3575 N.ar    
   8 C8            -2.3787     3.4833     3.3813 C.ar    
   9 N9            -3.1705     3.4813     2.3204 N.ar    
  10 C10           -2.7623     3.0035     1.1526 C.ar    
  11 N11           -3.5974     3.0072     0.0544 N.pl3   
  12 C12           -4.8921     3.5280     0.1616 C.ar    
  13 C13           -5.1364     4.6173     0.9880 C.ar    
  14 C14           -6.4135     5.1309     1.0935 C.ar    
  15 C15           -7.4538     4.5585     0.3736 C.ar    
  16 C16           -7.2099     3.4692    -0.4523 C.ar    
  17 C17           -5.9317     2.9592    -0.5629 C.ar    
  18 N18           -8.7500     5.0799     0.4808 N.am    
  19 C19           -9.8156     4.2588     0.3986 C.2     
  20 N20          -11.0624     4.7707     0.3992 N.am    
  21 C21          -12.1650     3.9211     0.3141 C.2     
  22 C22          -12.1306     2.5632     0.2263 C.2     
  23 C23          -13.4492     2.1038     0.1618 C.2     
  24 N24          -14.2512     3.1369     0.2083 N.2     
  25 N25          -13.4729     4.2972     0.3096 N.pl3   
  26 C26          -13.9548     5.6111     0.3845 C.ar    
  27 C27          -15.0973     5.9739    -0.3158 C.ar    
  28 C28          -15.5698     7.2697    -0.2400 C.ar    
  29 C29          -14.9059     8.2051     0.5318 C.ar    
  30 C30          -13.7672     7.8469     1.2302 C.ar    
  31 C31          -13.2937     6.5513     1.1638 C.ar    
  32 C32          -16.8100     7.6644    -0.9999 C.3     
  33 C33          -13.8753     0.6622     0.0561 C.3     
  34 C34          -13.6977    -0.0229     1.4126 C.3     
  35 C35          -15.3458     0.5943    -0.3609 C.3     
  36 C36          -13.0150    -0.0484    -0.9907 C.3     
  37 N37            0.8791     0.9516    -1.3394 N.am    
  38 O38           -9.6522     3.0562     0.3240 O.2     
  39 C39            0.0717     0.2969    -2.1971 C.2     
  40 C40            0.6043    -0.1669    -3.5284 C.3     
  41 C41           -0.5077    -0.8767    -4.3033 C.3     
  42 O42           -1.0836     0.0809    -1.8976 O.2     
  43 H43            2.1590     1.1198     0.9612 H       
  44 H44            1.2945     2.0251     3.0505 H       
  45 H45           -1.5390     1.9471    -1.0207 H       
  46 H46           -2.7606     3.8838     4.3087 H       
  47 H47           -3.2873     2.6488    -0.7919 H       
  48 H48           -4.3274     5.0623     1.5482 H       
  49 H49           -6.6035     5.9777     1.7364 H       
  50 H50           -8.0192     3.0237    -1.0117 H       
  51 H51           -5.7421     2.1120    -1.2052 H       
  52 H52           -8.8804     6.0318     0.6142 H       
  53 H53          -11.1928     5.7301     0.4587 H       
  54 H54          -11.2420     1.9496     0.2090 H       
  55 H55          -15.6160     5.2438    -0.9194 H       
  56 H56          -15.2770     9.2178     0.5892 H       
  57 H57          -13.2503     8.5800     1.8317 H       
  58 H58          -12.4044     6.2721     1.7094 H       
  59 H59          -17.6871     7.5014    -0.3736 H       
  60 H60          -16.7490     8.7179    -1.2727 H       
  61 H61          -16.8908     7.0593    -1.9028 H       
  62 H62          -14.3106     0.4833     2.1583 H       
  63 H63          -14.0059    -1.0656     1.3361 H       
  64 H64          -12.6501     0.0254     1.7097 H       
  65 H65          -15.4723     1.0824    -1.3273 H       
  66 H66          -15.6540    -0.4484    -0.4374 H       
  67 H67          -15.9587     1.1006     0.3848 H       
  68 H68          -11.9674    -0.0001    -0.6936 H       
  69 H69          -13.3232    -1.0912    -1.0672 H       
  70 H70          -13.1415     0.4396    -1.9571 H       
  71 H71            1.8210     1.0582    -1.5453 H       
  72 H72            0.9532     0.6933    -4.0998 H       
  73 H73            1.4328    -0.8568    -3.3679 H       
  74 H74           -0.8567    -1.7369    -3.7320 H       
  75 H75           -1.3362    -0.1868    -4.4638 H       
  76 H76           -0.1225    -1.2121    -5.2662 H       
@<TRIPOS>BOND
   1    1    2 ar
   2    1   37 1
   3    1    6 ar
   4    2    3 ar
   5    2   43 1
   6    3    4 ar
   7    3   44 1
   8    4    5 ar
   9    4    7 ar
  10    5    6 ar
  11    5   10 ar
  12    6   45 1
  13    7    8 ar
  14    8    9 ar
  15    8   46 1
  16    9   10 ar
  17   10   11 1
  18   11   12 1
  19   11   47 1
  20   12   13 ar
  21   12   17 ar
  22   13   14 ar
  23   13   48 1
  24   14   15 ar
  25   14   49 1
  26   15   16 ar
  27   15   18 1
  28   16   17 ar
  29   16   50 1
  30   17   51 1
  31   18   19 am
  32   18   52 1
  33   19   20 am
  34   19   38 2
  35   20   21 1
  36   20   53 1
  37   21   22 2
  38   21   25 1
  39   22   23 1
  40   22   54 1
  41   23   24 2
  42   23   33 1
  43   24   25 1
  44   25   26 1
  45   26   27 ar
  46   26   31 ar
  47   27   28 ar
  48   27   55 1
  49   28   29 ar
  50   28   32 1
  51   29   30 ar
  52   29   56 1
  53   30   31 ar
  54   30   57 1
  55   31   58 1
  56   32   59 1
  57   32   60 1
  58   32   61 1
  59   33   34 1
  60   33   35 1
  61   33   36 1
  62   34   62 1
  63   34   63 1
  64   34   64 1
  65   35   65 1
  66   35   66 1
  67   35   67 1
  68   36   68 1
  69   36   69 1
  70   36   70 1
  71   37   39 am
  72   37   71 1
  73   39   40 1
  74   39   42 2
  75   40   41 1
  76   40   72 1
  77   40   73 1
  78   41   74 1
  79   41   75 1
  80   41   76 1

#	End of record

