#	Name: ASD04930038
#	Creating user name:	WinNT
#	Creation time:	15. 06. 2019 20:56

#	Modifying user name:	WinNT
#	Modification time:	15. 06. 2019 20:56

#	Program:	/corina/corina34_cracker 3.40 0067  02.08.2006

@<TRIPOS>MOLECULE
ASD04930038
  63   64    0    0    0
SMALL
NO_CHARGES


@<TRIPOS>ATOM
   1 C1             1.2432    -0.9287     2.2143 C.ar    
   2 C2             0.5773    -1.0584     1.0042 C.ar    
   3 C3             1.1204    -0.5488    -0.1556 C.ar    
   4 C4             2.3490     0.1041    -0.1221 C.ar    
   5 C5             3.0255     0.2372     1.1037 C.ar    
   6 C6             2.4601    -0.2862     2.2733 C.ar    
   7 N7             2.8950     0.6143    -1.2824 N.am    
   8 C8             4.0787     1.2502    -1.2864 C.2     
   9 C9             4.8402     1.4271    -0.0508 C.2     
  10 C10            4.3199     0.9242     1.1444 C.2     
  11 O11            4.9914     1.0673     2.3060 O.3     
  12 O12            4.5236     1.6850    -2.3338 O.2     
  13 C13            6.1327     2.1229    -0.0659 C.2     
  14 O14            6.1695     3.3362    -0.1501 O.2     
  15 N15            7.2786     1.4178     0.0137 N.am    
  16 N16            8.5123     2.0699    -0.1107 N.am    
  17 C17            9.6582     1.3648    -0.0311 C.2     
  18 C18           10.9853     2.0662    -0.1649 C.3     
  19 O19            9.6213     0.1659     0.1481 O.2     
  20 C20           12.1172     1.0446    -0.0379 C.3     
  21 C21           13.4645     1.7567    -0.1737 C.3     
  22 C22           14.5964     0.7351    -0.0468 C.3     
  23 C23           15.9438     1.4472    -0.1825 C.3     
  24 C24           17.0756     0.4256    -0.0556 C.3     
  25 C25           18.4230     1.1377    -0.1914 C.3     
  26 C26           19.5548     0.1160    -0.0644 C.3     
  27 C27           20.9022     0.8281    -0.2002 C.3     
  28 C28           22.0341    -0.1935    -0.0733 C.3     
  29 C29           23.3814     0.5186    -0.2091 C.3     
  30 Br30           3.3628    -0.1111     3.9256 Br      
  31 C31            2.1651     0.4580    -2.5430 C.3     
  32 H32            0.8031    -1.3296     3.1153 H       
  33 H33           -0.3763    -1.5642     0.9705 H       
  34 H34            0.5922    -0.6567    -1.0914 H       
  35 H35            5.8677     1.4642     2.2075 H       
  36 H36            7.2491     0.4589     0.1570 H       
  37 H37            8.5419     3.0288    -0.2540 H       
  38 H38           11.0426     2.5528    -1.1385 H       
  39 H39           11.0816     2.8147     0.6216 H       
  40 H40           12.0599     0.5580     0.9357 H       
  41 H41           12.0209     0.2961    -0.8244 H       
  42 H42           13.5218     2.2433    -1.1474 H       
  43 H43           13.5608     2.5052     0.6128 H       
  44 H44           14.5391     0.2485     0.9269 H       
  45 H45           14.5001    -0.0134    -0.8333 H       
  46 H46           16.0010     1.9338    -1.1562 H       
  47 H47           16.0400     2.1957     0.6040 H       
  48 H48           17.0183    -0.0611     0.9181 H       
  49 H49           16.9794    -0.3229    -0.8421 H       
  50 H50           18.4803     1.6243    -1.1650 H       
  51 H51           18.5192     1.8862     0.5951 H       
  52 H52           19.4976    -0.3706     0.9092 H       
  53 H53           19.4586    -0.6325    -0.8509 H       
  54 H54           20.9595     1.3148    -1.1739 H       
  55 H55           20.9984     1.5766     0.5863 H       
  56 H56           21.9768    -0.6801     0.9004 H       
  57 H57           21.9378    -0.9420    -0.8598 H       
  58 H58           23.4387     1.0052    -1.1827 H       
  59 H59           23.4777     1.2671     0.5774 H       
  60 H60           24.1878    -0.2092    -0.1186 H       
  61 H61            1.5044     1.3126    -2.6886 H       
  62 H62            2.8742     0.4021    -3.3689 H       
  63 H63            1.5737    -0.4570    -2.5093 H       
@<TRIPOS>BOND
   1    1    2 ar
   2    1    6 ar
   3    1   32 1
   4    2    3 ar
   5    2   33 1
   6    3    4 ar
   7    3   34 1
   8    4    5 ar
   9    4    7 1
  10    5    6 ar
  11    5   10 1
  12    6   30 1
  13    7    8 am
  14    7   31 1
  15    8    9 1
  16    8   12 2
  17    9   10 2
  18    9   13 1
  19   10   11 1
  20   11   35 1
  21   13   14 2
  22   13   15 am
  23   15   16 1
  24   15   36 1
  25   16   17 am
  26   16   37 1
  27   17   18 1
  28   17   19 2
  29   18   20 1
  30   18   38 1
  31   18   39 1
  32   20   21 1
  33   20   40 1
  34   20   41 1
  35   21   22 1
  36   21   42 1
  37   21   43 1
  38   22   23 1
  39   22   44 1
  40   22   45 1
  41   23   24 1
  42   23   46 1
  43   23   47 1
  44   24   25 1
  45   24   48 1
  46   24   49 1
  47   25   26 1
  48   25   50 1
  49   25   51 1
  50   26   27 1
  51   26   52 1
  52   26   53 1
  53   27   28 1
  54   27   54 1
  55   27   55 1
  56   28   29 1
  57   28   56 1
  58   28   57 1
  59   29   58 1
  60   29   59 1
  61   29   60 1
  62   31   61 1
  63   31   62 1
  64   31   63 1

#	End of record

