#	Name: ASD01913962
#	Creating user name:	WinNT
#	Creation time:	15. 06. 2019 20:02

#	Modifying user name:	WinNT
#	Modification time:	15. 06. 2019 20:02

#	Program:	/corina/corina34_cracker 3.40 0067  02.08.2006

@<TRIPOS>MOLECULE
ASD01913962
  39   42    0    0    0
SMALL
NO_CHARGES


@<TRIPOS>ATOM
   1 C1             0.0581     1.3449    -0.7988 C.ar    
   2 C2             0.0515    -0.0151    -0.5507 C.ar    
   3 N3             1.1816    -0.6778    -0.3954 N.ar    
   4 C4             2.3528    -0.0700    -0.4686 C.ar    
   5 C5             2.4402     1.2988    -0.7529 C.ar    
   6 C6             1.2678     2.0175    -0.9034 C.ar    
   7 C7             3.6230    -0.7877    -0.2422 C.2     
   8 C8             4.7935    -0.0923    -0.0415 C.2     
   9 C9             4.8482     1.4076    -0.0164 C.3     
  10 C10            3.7688     1.9747    -0.9387 C.3     
  11 N11            3.9274    -2.0993    -0.1846 N.pl3   
  12 N12            5.1940    -2.2426     0.0205 N.2     
  13 C13            5.7857    -1.0612     0.1169 C.2     
  14 C14            7.2239    -0.8157     0.3475 C.2     
  15 C15            2.9669    -3.1958    -0.3316 C.3     
  16 N16            8.0718    -1.8547     0.4823 N.am    
  17 C17            9.4460    -1.6247     0.6030 C.ar    
  18 C18            9.9070    -0.5125     1.2945 C.ar    
  19 C19           11.2661    -0.2884     1.4124 C.ar    
  20 C20           12.1659    -1.1712     0.8414 C.ar    
  21 C21           11.7088    -2.2796     0.1523 C.ar    
  22 C22           10.3525    -2.5117     0.0361 C.ar    
  23 O23            7.6429     0.3236     0.4157 O.2     
  24 Cl24          11.8443     1.1017     2.2766 Cl      
  25 H25           -0.8727     1.8802    -0.9151 H       
  26 H26           -0.8894    -0.5409    -0.4829 H       
  27 H27            1.2932     3.0795    -1.0978 H       
  28 H28            4.6785     1.7602     1.0009 H       
  29 H29            5.8285     1.7409    -0.3570 H       
  30 H30            4.0872     1.8483    -1.9735 H       
  31 H31            3.6544     3.0393    -0.7346 H       
  32 H32            2.8917    -3.4744    -1.3827 H       
  33 H33            3.3044    -4.0546     0.2487 H       
  34 H34            1.9902    -2.8742     0.0299 H       
  35 H35            7.7289    -2.7620     0.4956 H       
  36 H36            9.2048     0.1769     1.7395 H       
  37 H37           13.2273    -0.9941     0.9340 H       
  38 H38           12.4136    -2.9665    -0.2925 H       
  39 H39            9.9966    -3.3776    -0.5023 H       
@<TRIPOS>BOND
   1    1    2 ar
   2    1    6 ar
   3    1   25 1
   4    2    3 ar
   5    2   26 1
   6    3    4 ar
   7    4    5 ar
   8    4    7 1
   9    5    6 ar
  10    5   10 1
  11    6   27 1
  12    7    8 2
  13    7   11 1
  14    8    9 1
  15    8   13 1
  16    9   10 1
  17    9   28 1
  18    9   29 1
  19   10   30 1
  20   10   31 1
  21   11   12 1
  22   11   15 1
  23   12   13 2
  24   13   14 1
  25   14   16 am
  26   14   23 2
  27   15   32 1
  28   15   33 1
  29   15   34 1
  30   16   17 1
  31   16   35 1
  32   17   18 ar
  33   17   22 ar
  34   18   19 ar
  35   18   36 1
  36   19   20 ar
  37   19   24 1
  38   20   21 ar
  39   20   37 1
  40   21   22 ar
  41   21   38 1
  42   22   39 1

#	End of record

