#	Name: ASD01882729
#	Creating user name:	WinNT
#	Creation time:	15. 06. 2019 19:45

#	Modifying user name:	WinNT
#	Modification time:	15. 06. 2019 19:45

#	Program:	/corina/corina34_cracker 3.40 0067  02.08.2006

@<TRIPOS>MOLECULE
ASD01882729
  44   46    0    0    0
SMALL
NO_CHARGES


@<TRIPOS>ATOM
   1 C1            -0.0180     1.4770     0.0102 C.ar    
   2 C2             0.0021    -0.0041     0.0020 C.ar    
   3 N3             1.1661    -0.6427    -0.0071 N.ar    
   4 C4            -1.2014    -0.7076     0.0097 C.ar    
   5 C5            -1.1758    -2.0918     0.0021 C.ar    
   6 C6             1.2299    -1.9622    -0.0146 C.ar    
   7 N7             2.2906    -2.8593    -0.0249 N.am    
   8 C8             0.0581    -2.7284    -0.0131 C.ar    
   9 N9             0.4473    -4.0634    -0.0240 N.am    
  10 C10            1.7931    -4.1098    -0.0295 C.2     
  11 C11            3.7118    -2.5038    -0.0304 C.3     
  12 C12           -0.4518    -5.2200    -0.0209 C.3     
  13 C13           -0.7794    -5.6152    -1.4623 C.3     
  14 C14            0.5125    -5.9754    -2.1986 C.3     
  15 C15           -1.7184    -6.8231    -1.4590 C.3     
  16 C16           -1.4600    -4.4421    -2.1706 C.3     
  17 O17            2.4587    -5.1283    -0.0392 O.2     
  18 C18            1.1539     3.5962     0.0103 C.ar    
  19 C19           -0.0580     4.2555     0.0254 C.ar    
  20 C20           -1.2445     3.5414     0.0387 C.ar    
  21 C21           -1.2302     2.1608     0.0312 C.ar    
  22 C22            1.1885     2.2015     0.0025 C.ar    
  23 C23            2.4433     1.5117    -0.0126 C.1     
  24 N24            3.4388     0.9645    -0.0247 N.1     
  25 H25           -2.1430    -0.1788     0.0219 H       
  26 H26           -2.0928    -2.6623     0.0081 H       
  27 H27            4.0696    -2.4211     0.9959 H       
  28 H28            4.2775    -3.2762    -0.5514 H       
  29 H29            3.8457    -1.5495    -0.5398 H       
  30 H30            0.0330    -6.0557     0.4836 H       
  31 H31           -1.3722    -4.9634     0.5036 H       
  32 H32            0.9973    -6.8111    -1.6940 H       
  33 H33            0.2791    -6.2569    -3.2254 H       
  34 H34            1.1814    -5.1148    -2.2009 H       
  35 H35           -2.6388    -6.5665    -0.9345 H       
  36 H36           -1.9518    -7.1046    -2.4859 H       
  37 H37           -1.2336    -7.6589    -0.9544 H       
  38 H38           -0.7910    -3.5815    -2.1729 H       
  39 H39           -1.6934    -4.7236    -3.1974 H       
  40 H40           -2.3803    -4.1854    -1.6460 H       
  41 H41            2.0753     4.1595    -0.0000 H       
  42 H42           -0.0815     5.3352     0.0314 H       
  43 H43           -2.1873     4.0680     0.0508 H       
  44 H44           -2.1599     1.6112     0.0413 H       
@<TRIPOS>BOND
   1    1    2 1
   2    1   22 ar
   3    1   21 ar
   4    2    4 ar
   5    2    3 ar
   6    3    6 ar
   7    4    5 ar
   8    4   25 1
   9    5    8 ar
  10    5   26 1
  11    6    8 ar
  12    6    7 1
  13    7   10 am
  14    7   11 1
  15    8    9 1
  16    9   10 am
  17    9   12 1
  18   10   17 2
  19   11   27 1
  20   11   28 1
  21   11   29 1
  22   12   13 1
  23   12   30 1
  24   12   31 1
  25   13   14 1
  26   13   15 1
  27   13   16 1
  28   14   32 1
  29   14   33 1
  30   14   34 1
  31   15   35 1
  32   15   36 1
  33   15   37 1
  34   16   38 1
  35   16   39 1
  36   16   40 1
  37   18   19 ar
  38   18   22 ar
  39   18   41 1
  40   19   20 ar
  41   19   42 1
  42   20   21 ar
  43   20   43 1
  44   21   44 1
  45   22   23 1
  46   23   24 3

#	End of record

