#	Name: ASD01230261
#	Creating user name:	WinNT
#	Creation time:	15. 06. 2019 19:12

#	Modifying user name:	WinNT
#	Modification time:	15. 06. 2019 19:12

#	Program:	/corina/corina34_cracker 3.40 0067  02.08.2006

@<TRIPOS>MOLECULE
ASD01230261
  22   22    0    0    0
SMALL
NO_CHARGES


@<TRIPOS>ATOM
   1 C1            -0.0170     1.4003     0.0097 C.ar    
   2 C2             0.0021    -0.0041     0.0020 C.ar    
   3 C3             1.2352    -0.6606    -0.0133 C.ar    
   4 C4             2.3895     0.1063    -0.0201 C.ar    
   5 C5             2.2903     1.4842    -0.0118 C.ar    
   6 N6             1.1145     2.0847     0.0026 N.ar    
   7 N7            -1.2308     2.0739     0.0191 N.pl3   
   8 O8            -2.2907    -0.5900     0.8571 O.3     
   9 C9            -1.2589    -0.7730     0.0104 C.2     
  10 C10           -1.5800    -1.7882    -0.8355 C.2     
  11 C11           -2.8683    -2.2288    -0.4707 C.2     
  12 C12           -3.2658    -1.4684     0.5693 C.2     
  13 Br13          -4.9202    -1.6147     1.4734 Br      
  14 H14            1.2876    -1.7393    -0.0192 H       
  15 H15            3.3590    -0.3694    -0.0316 H       
  16 H16            3.1905     2.0808    -0.0172 H       
  17 H17           -2.0625     1.5747     0.0203 H       
  18 H18           -1.2472     3.0437     0.0245 H       
  19 H19           -0.9667    -2.1807    -1.6331 H       
  20 H20           -3.4305    -3.0248    -0.9362 H       
  21 Br21           8.3590     8.0437     6.4734 Br      
  22 H22            8.3590     9.5537     6.4734 H       
@<TRIPOS>BOND
   1    1    2 ar
   2    1    6 ar
   3    1    7 1
   4    2    3 ar
   5    2    9 1
   6    3    4 ar
   7    3   14 1
   8    4    5 ar
   9    4   15 1
  10    5    6 ar
  11    5   16 1
  12    7   17 1
  13    7   18 1
  14    8    9 1
  15    8   12 1
  16    9   10 2
  17   10   11 1
  18   10   19 1
  19   11   12 2
  20   11   20 1
  21   12   13 1
  22   21   22 1

#	End of record

