#	Name: ASD01885835
#	Creating user name:	WinNT
#	Creation time:	15. 06. 2019 19:50

#	Modifying user name:	WinNT
#	Modification time:	15. 06. 2019 19:50

#	Program:	/corina/corina34_cracker 3.40 0067  02.08.2006

@<TRIPOS>MOLECULE
ASD01885835
  45   48    0    0    0
SMALL
NO_CHARGES


@<TRIPOS>ATOM
   1 C1             0.0054     1.3936    -0.1170 C.ar    
   2 C2            -1.2347     2.0768    -0.0346 C.ar    
   3 C3            -1.2403     3.4952    -0.0495 C.ar    
   4 C4            -0.0201     4.1496    -0.1450 C.ar    
   5 C5             1.1603     3.4004    -0.2224 C.ar    
   6 N6             1.1450     2.0817    -0.2015 N.ar    
   7 C7             0.0149    -0.0130    -0.1025 C.ar    
   8 C8            -1.1819    -0.7022    -0.0137 C.ar    
   9 C9            -2.4021    -0.0089     0.0617 C.ar    
  10 C10           -2.4300     1.3505     0.0602 C.ar    
  11 C11           -2.5089     4.2544     0.0337 C.ar    
  12 C12           -2.6459     5.2891     0.9594 C.ar    
  13 C13           -3.8295     5.9932     1.0330 C.ar    
  14 C14           -3.5692     3.9409    -0.8173 C.ar    
  15 C15            2.4604     4.1071    -0.3181 C.2     
  16 N16            3.6074     3.4023    -0.3825 N.am    
  17 O17            2.4916     5.3215    -0.3385 O.2     
  18 C18           -1.1776    -2.1811    -0.0103 C.2     
  19 C19           -4.8820     5.6739     0.1897 C.ar    
  20 C20           -4.7487     4.6509    -0.7358 C.ar    
  21 F21           -6.0397     6.3662     0.2660 F       
  22 N22           -0.1104    -2.8508     0.4682 N.am    
  23 C23           -0.0056    -4.3110     0.6041 C.3     
  24 C24            1.3776    -4.6160     1.2169 C.3     
  25 C25            1.7496    -3.2819     1.9162 C.3     
  26 C26            1.1475    -2.2410     0.9362 C.3     
  27 O27           -2.1366    -2.7926    -0.4392 O.2     
  28 H28            0.0187     5.2288    -0.1598 H       
  29 H29            0.9494    -0.5512    -0.1605 H       
  30 H30           -3.3278    -0.5620     0.1211 H       
  31 H31           -3.3742     1.8710     0.1229 H       
  32 H32           -1.8265     5.5382     1.6174 H       
  33 H33           -3.9365     6.7944     1.7493 H       
  34 H34           -3.4662     3.1439    -1.5388 H       
  35 H35            3.5824     2.4328    -0.3662 H       
  36 H36            4.4578     3.8646    -0.4450 H       
  37 H37           -5.5716     4.4061    -1.3910 H       
  38 H38           -0.7922    -4.6795     1.2625 H       
  39 H39           -0.0888    -4.7814    -0.3757 H       
  40 H40            1.3075    -5.4257     1.9432 H       
  41 H41            2.1001    -4.8573     0.4372 H       
  42 H42            1.2838    -3.2129     2.8993 H       
  43 H43            2.8311    -3.1673     1.9892 H       
  44 H44            1.8223    -2.0719     0.0970 H       
  45 H45            0.9448    -1.3044     1.4557 H       
@<TRIPOS>BOND
   1    1    7 ar
   2    1    6 ar
   3    1    2 ar
   4    2    3 ar
   5    2   10 ar
   6    3   11 1
   7    3    4 ar
   8    4    5 ar
   9    4   28 1
  10    5   15 1
  11    5    6 ar
  12    7    8 ar
  13    7   29 1
  14    8    9 ar
  15    8   18 1
  16    9   10 ar
  17    9   30 1
  18   10   31 1
  19   11   12 ar
  20   11   14 ar
  21   12   13 ar
  22   12   32 1
  23   13   19 ar
  24   13   33 1
  25   14   20 ar
  26   14   34 1
  27   15   16 am
  28   15   17 2
  29   16   35 1
  30   16   36 1
  31   18   22 am
  32   18   27 2
  33   19   20 ar
  34   19   21 1
  35   20   37 1
  36   22   23 1
  37   22   26 1
  38   23   24 1
  39   23   38 1
  40   23   39 1
  41   24   25 1
  42   24   40 1
  43   24   41 1
  44   25   26 1
  45   25   42 1
  46   25   43 1
  47   26   44 1
  48   26   45 1

#	End of record

