#	Name: ASD01208579
#	Creating user name:	WinNT
#	Creation time:	15. 06. 2019 19:10

#	Modifying user name:	WinNT
#	Modification time:	15. 06. 2019 19:10

#	Program:	/corina/corina34_cracker 3.40 0067  02.08.2006

@<TRIPOS>MOLECULE
ASD01208579
  52   54    0    0    0
SMALL
NO_CHARGES


@<TRIPOS>ATOM
   1 N1            -0.2405     1.1499    -0.0038 N.pl3   
   2 C2            -0.2223    -0.2258    -0.0696 C.2     
   3 C3             1.0965    -0.6317    -0.1375 C.2     
   4 C4             1.8878     0.5145    -0.1123 C.2     
   5 C5             1.0456     1.6028    -0.0297 C.2     
   6 C6            -1.3941    -1.1032    -0.0680 C.2     
   7 O7            -1.2508    -2.3095    -0.1304 O.2     
   8 O8            -2.6332    -0.5739     0.0027 O.3     
   9 C9             1.4651     3.0192     0.0219 C.ar    
  10 C10            2.8207     3.3492    -0.0124 C.ar    
  11 C11            3.2095     4.6774     0.0357 C.ar    
  12 C12            2.2534     5.6797     0.1184 C.ar    
  13 C13            0.9046     5.3562     0.1528 C.ar    
  14 C14            0.5069     4.0302     0.0993 C.ar    
  15 O15           -0.0277     6.3415     0.2343 O.3     
  16 C16           -0.7796     6.4154     1.3613 C.ar    
  17 C17           -1.6744     7.4665     1.5347 C.ar    
  18 N18           -0.6672     5.4836     2.2968 N.ar    
  19 N19           -2.4045     7.5350     2.6319 N.ar    
  20 C20           -2.2860     6.6061     3.5656 C.ar    
  21 C21           -1.4016     5.5581     3.3939 C.ar    
  22 S22           -3.2627     6.7012     5.0291 S.o2    
  23 O23           -2.5004     6.0043     6.0050 O.2     
  24 O24           -3.5453     8.0864     5.1724 O.2     
  25 C25           -4.7734     5.7817     4.6257 C.3     
  26 O26            4.5293     4.9998     0.0024 O.3     
  27 C27            4.8561     6.3883    -0.0834 C.3     
  28 C28            6.1322     6.5619    -0.9094 C.3     
  29 C29            5.0790     6.9476     1.3232 C.3     
  30 O30            7.2299     5.9569    -0.2230 O.3     
  31 C31            8.4767     6.0633    -0.9130 C.3     
  32 H32           -1.0350     1.7040     0.0482 H       
  33 H33            1.4492    -1.6507    -0.1987 H       
  34 H34            2.9667     0.5450    -0.1506 H       
  35 H35           -3.3425    -1.2311    -0.0022 H       
  36 H36            3.5656     2.5697    -0.0760 H       
  37 H37            2.5600     6.7146     0.1565 H       
  38 H38           -0.5434     3.7793     0.1216 H       
  39 H39           -1.7712     8.2256     0.7726 H       
  40 H40           -1.3107     4.7987     4.1564 H       
  41 H41           -4.5163     4.7527     4.3743 H       
  42 H42           -5.4437     5.7890     5.4852 H       
  43 H43           -5.2681     6.2507     3.7752 H       
  44 H44            4.0374     6.9253    -0.5624 H       
  45 H45            6.0038     6.0848    -1.8810 H       
  46 H46            6.3324     7.6241    -1.0498 H       
  47 H47            5.8977     6.4105     1.8022 H       
  48 H48            5.3282     8.0067     1.2578 H       
  49 H49            4.1698     6.8239     1.9117 H       
  50 H50            9.2586     5.5800    -0.3272 H       
  51 H51            8.3969     5.5759    -1.8847 H       
  52 H52            8.7256     7.1152    -1.0535 H       
@<TRIPOS>BOND
   1    1    2 1
   2    1    5 1
   3    1   32 1
   4    2    3 2
   5    2    6 1
   6    3    4 1
   7    3   33 1
   8    4    5 2
   9    4   34 1
  10    5    9 1
  11    6    7 2
  12    6    8 1
  13    8   35 1
  14    9   10 ar
  15    9   14 ar
  16   10   11 ar
  17   10   36 1
  18   11   12 ar
  19   11   26 1
  20   12   13 ar
  21   12   37 1
  22   13   14 ar
  23   13   15 1
  24   14   38 1
  25   15   16 1
  26   16   17 ar
  27   16   18 ar
  28   17   19 ar
  29   17   39 1
  30   18   21 ar
  31   19   20 ar
  32   20   21 ar
  33   20   22 1
  34   21   40 1
  35   22   23 2
  36   22   24 2
  37   22   25 1
  38   25   41 1
  39   25   42 1
  40   25   43 1
  41   26   27 1
  42   27   28 1
  43   27   29 1
  44   27   44 1
  45   28   30 1
  46   28   45 1
  47   28   46 1
  48   29   47 1
  49   29   48 1
  50   29   49 1
  51   30   31 1
  52   31   50 1
  53   31   51 1
  54   31   52 1

#	End of record

