#	Name: ASD04930056
#	Creating user name:	WinNT
#	Creation time:	15. 06. 2019 20:56

#	Modifying user name:	WinNT
#	Modification time:	15. 06. 2019 20:56

#	Program:	/corina/corina34_cracker 3.40 0067  02.08.2006

@<TRIPOS>MOLECULE
ASD04930056
  61   62    0    0    0
SMALL
NO_CHARGES


@<TRIPOS>ATOM
   1 C1             0.0107     1.3350    -0.0302 C.ar    
   2 C2             0.0450    -0.0304    -0.0325 C.ar    
   3 C3             1.2584    -0.7045    -0.0218 C.ar    
   4 C4             2.4480    -0.0096    -0.0087 C.ar    
   5 C5             2.4385     1.3829    -0.0065 C.ar    
   6 C6             1.2070     2.0614    -0.0174 C.ar    
   7 C7             1.1897     3.5279    -0.0152 C.2     
   8 N8             3.6259     2.0855     0.0061 N.am    
   9 C9             3.6520     3.4290     0.0089 C.2     
  10 C10            2.4120     4.2040    -0.0028 C.2     
  11 O11            0.0235     4.2064    -0.0255 O.3     
  12 O12            4.7231     4.0092     0.0211 O.2     
  13 C13            2.4511     5.6715    -0.0000 C.2     
  14 O14            2.7252     6.2748    -1.0206 O.2     
  15 N15            2.1835     6.3507     1.1329 N.am    
  16 N16            2.3272     7.7439     1.1650 N.am    
  17 C17            2.0596     8.4231     2.2980 C.2     
  18 C18            2.2141     9.9217     2.3325 C.3     
  19 O19            1.6943     7.8281     3.2897 O.2     
  20 C20            1.8502    10.4400     3.7253 C.3     
  21 C21            2.0072    11.9615     3.7604 C.3     
  22 C22            1.6433    12.4798     5.1532 C.3     
  23 C23            1.8002    14.0013     5.1882 C.3     
  24 C24            1.4363    14.5196     6.5810 C.3     
  25 C25            1.5932    16.0411     6.6161 C.3     
  26 C26            4.8913     1.3474     0.0172 C.3     
  27 C27            5.3390     1.0966    -1.3997 C.2     
  28 C28            6.5296     1.4809    -1.7882 C.2     
  29 C29            7.4515     2.1738    -0.8182 C.3     
  30 C30            6.9773     1.2301    -3.2051 C.3     
  31 H31           -0.9370     1.8527    -0.0427 H       
  32 H32           -0.8788    -0.5897    -0.0424 H       
  33 H33            1.2700    -1.7844    -0.0234 H       
  34 H34            3.3865    -0.5441     0.0003 H       
  35 H35            0.1251     5.1645     0.0569 H       
  36 H36            1.8914     5.8748     1.9261 H       
  37 H37            2.6193     8.2198     0.3718 H       
  38 H38            3.2469    10.1858     2.1049 H       
  39 H39            1.5524    10.3724     1.5928 H       
  40 H40            0.8175    10.1759     3.9529 H       
  41 H41            2.5120     9.9894     4.4650 H       
  42 H42            3.0399    12.2256     3.5328 H       
  43 H43            1.3454    12.4122     3.0207 H       
  44 H44            0.6105    12.2157     5.3807 H       
  45 H45            2.3050    12.0292     5.8929 H       
  46 H46            2.8329    14.2654     4.9606 H       
  47 H47            1.1385    14.4520     4.4485 H       
  48 H48            0.4036    14.2555     6.8086 H       
  49 H49            2.0980    14.0690     7.3207 H       
  50 H50            0.9315    16.4918     5.8764 H       
  51 H51            1.3340    16.4104     7.6083 H       
  52 H52            2.6260    16.3052     6.3885 H       
  53 H53            5.6485     1.9323     0.5393 H       
  54 H54            4.7518     0.3948     0.5282 H       
  55 H55            4.6783     0.6000    -2.0949 H       
  56 H56            7.6502     1.5156     0.0276 H       
  57 H57            8.3893     2.4162    -1.3181 H       
  58 H58            6.9818     3.0909    -0.4624 H       
  59 H59            6.6993     2.0791    -3.8297 H       
  60 H60            8.0595     1.1019    -3.2269 H       
  61 H61            6.4968     0.3279    -3.5837 H       
@<TRIPOS>BOND
   1    1    2 ar
   2    1    6 ar
   3    1   31 1
   4    2    3 ar
   5    2   32 1
   6    3    4 ar
   7    3   33 1
   8    4    5 ar
   9    4   34 1
  10    5    6 ar
  11    5    8 1
  12    6    7 1
  13    7   10 2
  14    7   11 1
  15    8    9 am
  16    8   26 1
  17    9   10 1
  18    9   12 2
  19   10   13 1
  20   11   35 1
  21   13   14 2
  22   13   15 am
  23   15   16 1
  24   15   36 1
  25   16   17 am
  26   16   37 1
  27   17   18 1
  28   17   19 2
  29   18   20 1
  30   18   38 1
  31   18   39 1
  32   20   21 1
  33   20   40 1
  34   20   41 1
  35   21   22 1
  36   21   42 1
  37   21   43 1
  38   22   23 1
  39   22   44 1
  40   22   45 1
  41   23   24 1
  42   23   46 1
  43   23   47 1
  44   24   25 1
  45   24   48 1
  46   24   49 1
  47   25   50 1
  48   25   51 1
  49   25   52 1
  50   26   27 1
  51   26   53 1
  52   26   54 1
  53   27   28 2
  54   27   55 1
  55   28   29 1
  56   28   30 1
  57   29   56 1
  58   29   57 1
  59   29   58 1
  60   30   59 1
  61   30   60 1
  62   30   61 1

#	End of record

