#	Name: ASD00840267
#	Creating user name:	WinNT
#	Creation time:	15. 06. 2019 18:38

#	Modifying user name:	WinNT
#	Modification time:	15. 06. 2019 18:38

#	Program:	/corina/corina34_cracker 3.40 0067  02.08.2006

@<TRIPOS>MOLECULE
ASD00840267
  92   97    0    0    0
SMALL
NO_CHARGES


@<TRIPOS>ATOM
   1 F1            -0.1177    -3.1639     4.7131 F       
   2 N2            -0.0057     1.3211     0.0335 N.ar    
   3 C3             0.0085    -0.0012     0.0173 C.ar    
   4 C4             1.2114    -0.6959    -0.0024 C.ar    
   5 C5             2.3990     0.0142    -0.0048 C.ar    
   6 C6             2.3411     1.4012     0.0125 C.ar    
   7 C7             1.1101     2.0256     0.0316 C.ar    
   8 C8             1.2227    -2.2028    -0.0203 C.3     
   9 C9             0.4753    -2.7244    -1.2290 C.2     
  10 N10            2.5991    -2.7045    -0.0120 N.am    
  11 C11            3.4466    -2.3635    -1.0029 C.2     
  12 N12            4.7401    -2.7371    -0.9417 N.am    
  13 O13            3.0442    -1.7188    -1.9520 O.2     
  14 C14            5.6552    -2.4758    -2.0632 C.3     
  15 C15            6.9058    -1.7777    -1.5184 C.3     
  16 N16            7.4742    -2.5798    -0.4269 N.3     
  17 C17            6.5397    -2.6818     0.7020 C.3     
  18 C18            5.2755    -3.4114     0.2507 C.3     
  19 C19            8.7676    -2.0358     0.0079 C.3     
  20 C20            9.2692    -2.8188     1.2244 C.3     
  21 C21           10.6444    -2.2877     1.6352 C.3     
  22 N22           11.5822    -2.4354     0.5148 N.3     
  23 C23           11.1459    -1.6540    -0.6494 C.3     
  24 C24            9.7856    -2.1662    -1.1284 C.3     
  25 C25           12.9455    -2.0642     0.9170 C.3     
  26 O26            0.7561    -2.5231    -2.3917 O.2     
  27 N27           -0.5570    -3.4530    -0.7720 N.am    
  28 C28            0.4488    -2.7521     1.1561 C.ar    
  29 C29           -0.6013    -3.4894     0.6233 C.ar    
  30 C30            0.6137    -2.6412     2.5183 C.ar    
  31 C31           -0.2753    -3.2703     3.3755 C.ar    
  32 C32           -1.3265    -4.0084     2.8558 C.ar    
  33 C33           -1.4918    -4.1196     1.4895 C.ar    
  34 Cl34          -2.4411    -4.7973     3.9277 Cl      
  35 C35           -1.0280    -5.8366    -2.0646 C.ar    
  36 C36            0.1490    -6.0002    -2.7802 C.ar    
  37 C37           -1.7080    -6.9432    -1.5932 C.ar    
  38 C38           -1.2160    -8.2125    -1.8338 C.ar    
  39 C39           -0.0428    -8.3782    -2.5470 C.ar    
  40 C40            0.6404    -7.2753    -3.0207 C.ar    
  41 H41            0.3395    -9.3709    -2.7337 H       
  42 O42            0.8194    -4.9134    -3.2453 O.3     
  43 C43            2.0241    -5.1572    -3.9741 C.3     
  44 C44           13.9288    -2.4630    -0.1852 C.3     
  45 C45           15.3487    -2.0764     0.2337 C.3     
  46 O46           -1.1628    -0.6859     0.0204 O.3     
  47 C47           -3.5737    -0.8525     0.0418 C.3     
  48 C48           -2.3653     0.0859     0.0415 C.3     
  49 S49           -1.6515    -4.2188    -1.7507 S.o2    
  50 O50           -2.8322    -4.3868    -0.9779 O.2     
  51 O51           -1.6277    -3.5314    -2.9941 O.2     
  52 H52            3.3493    -0.4988    -0.0196 H       
  53 H53            3.2495     1.9854     0.0115 H       
  54 H54            1.0596     3.1043     0.0448 H       
  55 H55            2.9004    -3.2822     0.7066 H       
  56 H56            5.9371    -3.4181    -2.5329 H       
  57 H57            5.1650    -1.8317    -2.7933 H       
  58 H58            7.6418    -1.6754    -2.3159 H       
  59 H59            6.6368    -0.7906    -1.1424 H       
  60 H60            7.0101    -3.2351     1.5147 H       
  61 H61            6.2757    -1.6821     1.0470 H       
  62 H62            4.5346    -3.3887     1.0498 H       
  63 H63            5.5181    -4.4445     0.0018 H       
  64 H64            8.6500    -0.9853     0.2741 H       
  65 H65            8.5695    -2.6948     2.0509 H       
  66 H66            9.3485    -3.8756     0.9695 H       
  67 H67           10.5618    -1.2344     1.9032 H       
  68 H68           11.0108    -2.8527     2.4923 H       
  69 H69           11.0608    -0.6037    -0.3707 H       
  70 H70           11.8764    -1.7587    -1.4516 H       
  71 H71            9.8730    -3.2127    -1.4203 H       
  72 H72            9.4548    -1.5758    -1.9829 H       
  73 H73           12.9965    -0.9873     1.0772 H       
  74 H74           13.2054    -2.5816     1.8405 H       
  75 H75            1.4348    -2.0650     2.9185 H       
  76 H76           -2.3134    -4.6966     1.0914 H       
  77 H77           -2.6244    -6.8164    -1.0360 H       
  78 H78           -1.7486    -9.0762    -1.4639 H       
  79 H79            1.5562    -7.4052    -3.5783 H       
  80 H80            2.4580    -4.2075    -4.2870 H       
  81 H81            2.7324    -5.6882    -3.3380 H       
  82 H82            1.8010    -5.7620    -4.8530 H       
  83 H83           13.8778    -3.5400    -0.3454 H       
  84 H84           13.6688    -1.9456    -1.1087 H       
  85 H85           15.6086    -2.5938     1.1571 H       
  86 H86           16.0492    -2.3605    -0.5516 H       
  87 H87           15.3997    -0.9994     0.3939 H       
  88 H88           -4.4909    -0.2639     0.0579 H       
  89 H89           -3.5542    -1.4704    -0.8559 H       
  90 H90           -3.5369    -1.4920     0.9238 H       
  91 H91           -2.3848     0.7038     0.9392 H       
  92 H92           -2.4021     0.7253    -0.8405 H       
@<TRIPOS>BOND
   1    1   31 1
   2    2    3 ar
   3    2    7 ar
   4    3    4 ar
   5    3   46 1
   6    4    5 ar
   7    4    8 1
   8    5    6 ar
   9    5   52 1
  10    6    7 ar
  11    6   53 1
  12    7   54 1
  13    8    9 1
  14    8   10 1
  15    8   28 1
  16    9   26 2
  17    9   27 am
  18   10   11 am
  19   10   55 1
  20   11   12 am
  21   11   13 2
  22   12   14 1
  23   12   18 1
  24   14   15 1
  25   14   56 1
  26   14   57 1
  27   15   16 1
  28   15   58 1
  29   15   59 1
  30   16   17 1
  31   16   19 1
  32   17   18 1
  33   17   60 1
  34   17   61 1
  35   18   62 1
  36   18   63 1
  37   19   20 1
  38   19   24 1
  39   19   64 1
  40   20   21 1
  41   20   65 1
  42   20   66 1
  43   21   22 1
  44   21   67 1
  45   21   68 1
  46   22   23 1
  47   22   25 1
  48   23   24 1
  49   23   69 1
  50   23   70 1
  51   24   71 1
  52   24   72 1
  53   25   44 1
  54   25   73 1
  55   25   74 1
  56   27   49 am
  57   27   29 1
  58   28   29 ar
  59   28   30 ar
  60   29   33 ar
  61   30   31 ar
  62   30   75 1
  63   31   32 ar
  64   32   33 ar
  65   32   34 1
  66   33   76 1
  67   35   36 ar
  68   35   37 ar
  69   35   49 1
  70   36   42 1
  71   36   40 ar
  72   37   38 ar
  73   37   77 1
  74   38   39 ar
  75   38   78 1
  76   39   40 ar
  77   39   41 1
  78   40   79 1
  79   42   43 1
  80   43   80 1
  81   43   81 1
  82   43   82 1
  83   44   45 1
  84   44   83 1
  85   44   84 1
  86   45   85 1
  87   45   86 1
  88   45   87 1
  89   46   48 1
  90   47   48 1
  91   47   88 1
  92   47   89 1
  93   47   90 1
  94   48   91 1
  95   48   92 1
  96   49   50 2
  97   49   51 2

#	End of record

