#	Name: ASD02038198
#	Creating user name:	WinNT
#	Creation time:	15. 06. 2019 20:16

#	Modifying user name:	WinNT
#	Modification time:	15. 06. 2019 20:16

#	Program:	/corina/corina34_cracker 3.40 0067  02.08.2006

@<TRIPOS>MOLECULE
ASD02038198
  51   53    0    0    0
SMALL
NO_CHARGES


@<TRIPOS>ATOM
   1 C1             0.7430     0.8961    -0.5949 C.3     
   2 C2             0.6232    -0.6295    -0.4134 C.3     
   3 N3             2.1821     1.1140    -0.8047 N.am    
   4 C4             2.8170    -0.0646    -0.7586 C.2     
   5 N5             2.0075    -1.1092    -0.5403 N.am    
   6 C6             2.4336    -2.5075    -0.4433 C.3     
   7 C7             2.7665    -2.8394     1.0127 C.3     
   8 C8             3.2115    -4.2998     1.1140 C.3     
   9 O9             3.4104    -4.6430     2.4868 O.3     
  10 C10            3.8105    -5.9152     2.7535 C.ar    
  11 C11            4.0221    -6.3147     4.0648 C.ar    
  12 C12            4.0014    -6.8139     1.7145 C.ar    
  13 C13            4.4073    -8.1061     1.9844 C.ar    
  14 C14            4.6247    -8.5053     3.2965 C.ar    
  15 C15            4.4284    -7.6064     4.3365 C.ar    
  16 C16            2.7917     2.3560    -1.0187 C.ar    
  17 C17            2.0137     3.4968    -1.1624 C.ar    
  18 C18            2.6171     4.7216    -1.3730 C.ar    
  19 C19            3.9957     4.8124    -1.4413 C.ar    
  20 C20            4.7747     3.6760    -1.2987 C.ar    
  21 C21            4.1757     2.4496    -1.0818 C.ar    
  22 Cl22           4.7507     6.3530    -1.7066 Cl      
  23 O23            4.0192    -0.1761    -0.9024 O.2     
  24 O24            3.8204    -1.9877     1.4664 O.3     
  25 N25            5.0360    -9.8145     3.5709 N.am    
  26 Cl26           6.5046     3.7933    -1.3861 Cl      
  27 S27            6.6009   -10.2695     3.2772 S.o2    
  28 O28            6.6557   -11.6264     3.6957 O.2     
  29 O29            6.8209    -9.9121     1.9196 O.2     
  30 C30            7.5911    -9.2230     4.3794 C.3     
  31 H31            0.1755     1.2235    -1.4659 H       
  32 H32            0.4040     1.4157     0.3013 H       
  33 H33            0.2247    -0.8674     0.5729 H       
  34 H34           -0.0038    -1.0597    -1.1944 H       
  35 H35            1.6297    -3.1572    -0.7894 H       
  36 H36            3.3174    -2.6618    -1.0623 H       
  37 H37            1.8827    -2.6851     1.6317 H       
  38 H38            2.4435    -4.9441     0.6860 H       
  39 H39            4.1447    -4.4340     0.5670 H       
  40 H40            3.8693    -5.6154     4.8735 H       
  41 H41            3.8322    -6.5032     0.6940 H       
  42 H42            4.5551    -8.8060     1.1753 H       
  43 H43            4.5973    -7.9161     5.3573 H       
  44 H44            0.9372     3.4268    -1.1099 H       
  45 H45            2.0118     5.6090    -1.4848 H       
  46 H46            4.7831     1.5635    -0.9703 H       
  47 H47            4.6399    -2.0721     0.9600 H       
  48 H48            4.4044   -10.4554     3.9331 H       
  49 H49            7.3638    -9.4703     5.4164 H       
  50 H50            8.6504    -9.3946     4.1887 H       
  51 H51            7.3539    -8.1751     4.1954 H       
@<TRIPOS>BOND
   1    1    2 1
   2    1    3 1
   3    1   31 1
   4    1   32 1
   5    2    5 1
   6    2   33 1
   7    2   34 1
   8    3    4 am
   9    3   16 1
  10    4    5 am
  11    4   23 2
  12    5    6 1
  13    6    7 1
  14    6   35 1
  15    6   36 1
  16    7    8 1
  17    7   24 1
  18    7   37 1
  19    8    9 1
  20    8   38 1
  21    8   39 1
  22    9   10 1
  23   10   11 ar
  24   10   12 ar
  25   11   15 ar
  26   11   40 1
  27   12   13 ar
  28   12   41 1
  29   13   14 ar
  30   13   42 1
  31   14   15 ar
  32   14   25 1
  33   15   43 1
  34   16   17 ar
  35   16   21 ar
  36   17   18 ar
  37   17   44 1
  38   18   19 ar
  39   18   45 1
  40   19   20 ar
  41   19   22 1
  42   20   21 ar
  43   20   26 1
  44   21   46 1
  45   24   47 1
  46   25   27 am
  47   25   48 1
  48   27   28 2
  49   27   29 2
  50   27   30 1
  51   30   49 1
  52   30   50 1
  53   30   51 1

#	End of record

