#	Name: ASD01910876
#	Creating user name:	WinNT
#	Creation time:	15. 06. 2019 19:56

#	Modifying user name:	WinNT
#	Modification time:	15. 06. 2019 19:56

#	Program:	/corina/corina34_cracker 3.40 0067  02.08.2006

@<TRIPOS>MOLECULE
ASD01910876
  51   54    0    0    0
SMALL
NO_CHARGES


@<TRIPOS>ATOM
   1 C1             0.0599     1.7642    -0.3716 C.ar    
   2 C2             0.0023     0.3773    -0.4019 C.ar    
   3 C3             1.1880    -0.3339    -0.3561 C.ar    
   4 C4             2.3909     0.3606    -0.2819 C.ar    
   5 N5             2.4042     1.6845    -0.2547 N.ar    
   6 C6             1.2891     2.3885    -0.2974 C.ar    
   7 N7             3.5898    -0.3414    -0.2353 N.3     
   8 C8             4.7345     0.5762    -0.1595 C.3     
   9 C9             6.0168    -0.2302     0.0720 C.3     
  10 N10            6.1148    -1.2620    -0.9716 N.am    
  11 C11            4.9521    -2.1332    -1.2002 C.3     
  12 C12            3.7117    -1.2519    -1.3817 C.3     
  13 C13            7.2404    -1.4055    -1.6989 C.2     
  14 C14            7.3646    -2.5262    -2.6556 C.ar    
  15 C15            7.9775    -2.3242    -3.8942 C.ar    
  16 C16            8.0947    -3.3693    -4.7896 C.ar    
  17 C17            7.6078    -4.6200    -4.4682 C.ar    
  18 C18            6.9913    -4.8369    -3.2318 C.ar    
  19 C19            6.8755    -3.7870    -2.3210 C.ar    
  20 C20            6.4859    -6.1349    -2.8994 C.1     
  21 O21            8.1534    -0.6138    -1.5685 O.2     
  22 C22            6.0716    -7.1990    -2.6268 C.1     
  23 C23            5.5663    -8.4969    -2.2944 C.ar    
  24 C24            4.9486    -8.7249    -1.0622 C.ar    
  25 N25            4.4842    -9.9188    -0.7572 N.ar    
  26 C26            4.5803   -10.9376    -1.5897 C.ar    
  27 C27            5.1785   -10.7943    -2.8292 C.ar    
  28 C28            5.6776    -9.5593    -3.2018 C.ar    
  29 C29            1.3580     3.8935    -0.2638 C.3     
  30 H30           -0.8474     2.3488    -0.4103 H       
  31 H31           -0.9468    -0.1348    -0.4594 H       
  32 H32            1.1798    -1.4137    -0.3775 H       
  33 H33            4.8178     1.1316    -1.0937 H       
  34 H34            4.5885     1.2724     0.6663 H       
  35 H35            6.8810     0.4317     0.0148 H       
  36 H36            5.9793    -0.7040     1.0529 H       
  37 H37            5.1122    -2.7294    -2.0985 H       
  38 H38            4.8122    -2.7899    -0.3416 H       
  39 H39            2.8239    -1.8814    -1.4421 H       
  40 H40            3.8092    -0.6709    -2.2988 H       
  41 H41            8.3605    -1.3480    -4.1527 H       
  42 H42            8.5693    -3.2068    -5.7460 H       
  43 H43            7.7027    -5.4328    -5.1730 H       
  44 H44            6.4004    -3.9484    -1.3646 H       
  45 H45            4.8516    -7.9154    -0.3539 H       
  46 H46            4.1856   -11.8999    -1.2988 H       
  47 H47            5.2510   -11.6371    -3.5006 H       
  48 H48            6.1493    -9.4195    -4.1633 H       
  49 H49            1.4270     4.2770    -1.2818 H       
  50 H50            0.4606     4.2878     0.2130 H       
  51 H51            2.2364     4.2045     0.3018 H       
@<TRIPOS>BOND
   1    1    2 ar
   2    1    6 ar
   3    1   30 1
   4    2    3 ar
   5    2   31 1
   6    3    4 ar
   7    3   32 1
   8    4    5 ar
   9    4    7 1
  10    5    6 ar
  11    6   29 1
  12    7    8 1
  13    7   12 1
  14    8    9 1
  15    8   33 1
  16    8   34 1
  17    9   10 1
  18    9   35 1
  19    9   36 1
  20   10   11 1
  21   10   13 am
  22   11   12 1
  23   11   37 1
  24   11   38 1
  25   12   39 1
  26   12   40 1
  27   13   14 1
  28   13   21 2
  29   14   15 ar
  30   14   19 ar
  31   15   16 ar
  32   15   41 1
  33   16   17 ar
  34   16   42 1
  35   17   18 ar
  36   17   43 1
  37   18   19 ar
  38   18   20 1
  39   19   44 1
  40   20   22 3
  41   22   23 1
  42   23   24 ar
  43   23   28 ar
  44   24   25 ar
  45   24   45 1
  46   25   26 ar
  47   26   27 ar
  48   26   46 1
  49   27   28 ar
  50   27   47 1
  51   28   48 1
  52   29   49 1
  53   29   50 1
  54   29   51 1

#	End of record

