#	Name: ASD01150681
#	Creating user name:	WinNT
#	Creation time:	15. 06. 2019 19:04

#	Modifying user name:	WinNT
#	Modification time:	15. 06. 2019 19:04

#	Program:	/corina/corina34_cracker 3.40 0067  02.08.2006

@<TRIPOS>MOLECULE
ASD01150681
  38   41    0    0    0
SMALL
NO_CHARGES


@<TRIPOS>ATOM
   1 C1            -0.0184     1.5028     0.0108 C.2     
   2 C2            -0.7660     1.3093     1.3049 C.3     
   3 C3             3.6579     3.5772    -0.0195 C.ar    
   4 C4             2.4907     4.3272    -0.1088 C.ar    
   5 C5             1.2447     3.6558    -0.1009 C.ar    
   6 C6             1.2428     2.2491    -0.0023 C.ar    
   7 C7             2.4697     1.5791     0.0832 C.ar    
   8 N8             3.5989     2.2408     0.0737 N.ar    
   9 C9             2.7439     5.7746    -0.2032 C.ar    
  10 C10            4.0968     6.0847    -0.1830 C.ar    
  11 S11            5.0673     4.6276    -0.0435 S.3     
  12 C12            4.5019     7.4225    -0.2652 C.ar    
  13 C13            3.5684     8.4281    -0.3653 C.ar    
  14 C14            2.2164     8.1231    -0.3859 C.ar    
  15 C15            1.8013     6.8160    -0.3062 C.ar    
  16 C16           -0.0241     4.4111    -0.1933 C.ar    
  17 C17           -0.8528     4.2556    -1.3053 C.ar    
  18 C18           -2.0346     4.9629    -1.3853 C.ar    
  19 C19           -2.3986     5.8252    -0.3663 C.ar    
  20 C20           -1.5815     5.9838     0.7388 C.ar    
  21 C21           -0.4000     5.2777     0.8340 C.ar    
  22 C22            2.4899     0.0760     0.1898 C.3     
  23 O23           -0.4581     1.0365    -1.0194 O.2     
  24 H24           -0.9563     2.2798     1.7632 H       
  25 H25           -1.7139     0.8095     1.1057 H       
  26 H26           -0.1685     0.6987     1.9819 H       
  27 H27            5.5538     7.6665    -0.2496 H       
  28 H28            3.8896     9.4573    -0.4276 H       
  29 H29            1.4869     8.9156    -0.4642 H       
  30 H30            0.7462     6.5856    -0.3228 H       
  31 H31           -0.5694     3.5834    -2.1017 H       
  32 H32           -2.6769     4.8435    -2.2454 H       
  33 H33           -3.3245     6.3771    -0.4341 H       
  34 H34           -1.8711     6.6587     1.5307 H       
  35 H35            0.2348     5.3990     1.6992 H       
  36 H36            2.4374    -0.3597    -0.8080 H       
  37 H37            3.4120    -0.2414     0.6767 H       
  38 H38            1.6350    -0.2581     0.7776 H       
@<TRIPOS>BOND
   1    1    2 1
   2    1    6 1
   3    1   23 2
   4    2   24 1
   5    2   25 1
   6    2   26 1
   7    3    4 ar
   8    3    8 ar
   9    3   11 1
  10    4    5 ar
  11    4    9 1
  12    5    6 ar
  13    5   16 1
  14    6    7 ar
  15    7    8 ar
  16    7   22 1
  17    9   10 ar
  18    9   15 ar
  19   10   11 1
  20   10   12 ar
  21   12   13 ar
  22   12   27 1
  23   13   14 ar
  24   13   28 1
  25   14   15 ar
  26   14   29 1
  27   15   30 1
  28   16   17 ar
  29   16   21 ar
  30   17   18 ar
  31   17   31 1
  32   18   19 ar
  33   18   32 1
  34   19   20 ar
  35   19   33 1
  36   20   21 ar
  37   20   34 1
  38   21   35 1
  39   22   36 1
  40   22   37 1
  41   22   38 1

#	End of record

