#	Name: ASD02770018
#	Creating user name:	WinNT
#	Creation time:	15. 06. 2019 20:26

#	Modifying user name:	WinNT
#	Modification time:	15. 06. 2019 20:26

#	Program:	/corina/corina34_cracker 3.40 0067  02.08.2006

@<TRIPOS>MOLECULE
ASD02770018
  69   70    0    0    0
SMALL
NO_CHARGES


@<TRIPOS>ATOM
   1 C1             0.0998     0.9219    -0.0580 C.2     
   2 C2             0.1983    -0.5659     0.1609 C.3     
   3 O3             1.1058     1.5778    -0.2272 O.2     
   4 N4            -1.1066     1.5226    -0.0712 N.am    
   5 O5             1.5706    -0.9627     0.1260 O.3     
   6 C6             1.8361    -2.2840     0.3080 C.ar    
   7 C7             3.1508    -2.7407     0.2862 C.ar    
   8 C8             3.4161    -4.0875     0.4721 C.ar    
   9 C9             2.3759    -4.9750     0.6787 C.ar    
  10 C10            1.0705    -4.5216     0.6999 C.ar    
  11 C11            0.7992    -3.1774     0.5212 C.ar    
  12 O12            4.1726    -1.8667     0.0825 O.3     
  13 C13            5.4837    -2.4202    -0.0470 C.3     
  14 C14            6.3625    -1.4656    -0.8578 C.3     
  15 C15            7.7662    -2.0582    -0.9964 C.3     
  16 C16            8.3756    -2.2565     0.3930 C.3     
  17 C17            7.4968    -3.2111     1.2037 C.3     
  18 C18            6.0930    -2.6185     1.3424 C.3     
  19 C19            7.4124    -4.5600     0.4866 C.3     
  20 C20            9.7793    -2.8491     0.2544 C.3     
  21 C21           10.6581    -1.8945    -0.5564 C.3     
  22 C22           10.3886    -3.0475     1.6437 C.3     
  23 C23            5.7532    -1.2672    -2.2471 C.3     
  24 N24            6.5650    -0.3059    -3.0052 N.3     
  25 C25            6.0825    -0.1838    -4.3873 C.3     
  26 C26            6.9377     0.8086    -5.1321 C.ar    
  27 C27            8.0645     0.3790    -5.8081 C.ar    
  28 C28            8.8493     1.2881    -6.4919 C.ar    
  29 C29            8.5067     2.6296    -6.4997 C.ar    
  30 C30            7.3779     3.0587    -5.8222 C.ar    
  31 C31            6.5917     2.1470    -5.1435 C.ar    
  32 F32            9.2734     3.5193    -7.1674 F       
  33 Cl33           6.1924    -1.0290     2.1875 Cl      
  34 H34           -0.2287    -0.8195     1.1312 H       
  35 H35           -0.3503    -1.0858    -0.6246 H       
  36 H36           -1.9115     0.9974     0.0601 H       
  37 H37           -1.1700     2.4803    -0.2121 H       
  38 H38            4.4352    -4.4446     0.4553 H       
  39 H39            2.5840    -6.0248     0.8235 H       
  40 H40            0.2608    -5.2179     0.8612 H       
  41 H41           -0.2214    -2.8249     0.5433 H       
  42 H42            5.4236    -3.3811    -0.5579 H       
  43 H43            6.4226    -0.5046    -0.3468 H       
  44 H44            7.7061    -3.0191    -1.5073 H       
  45 H45            8.3923    -1.3781    -1.5740 H       
  46 H46            8.4357    -1.2956     0.9039 H       
  47 H47            7.9309    -3.3524     2.1935 H       
  48 H48            5.4669    -3.2986     1.9200 H       
  49 H49            8.4124    -4.9822     0.3878 H       
  50 H50            6.7863    -5.2401     1.0642 H       
  51 H51            6.9783    -4.4187    -0.5032 H       
  52 H52            9.7192    -3.8101    -0.2566 H       
  53 H53           10.7182    -0.9336    -0.0455 H       
  54 H54           11.6582    -2.3167    -0.6552 H       
  55 H55           10.2240    -1.7532    -1.5462 H       
  56 H56           10.4488    -2.0865     2.1547 H       
  57 H57            9.7626    -3.7275     2.2213 H       
  58 H58           11.3887    -3.4696     1.5450 H       
  59 H59            5.7327    -2.2210    -2.7744 H       
  60 H60            4.7371    -0.8855    -2.1471 H       
  61 H61            6.5822     0.5931    -2.5474 H       
  62 H62            6.1402    -1.1546    -4.8794 H       
  63 H63            5.0481     0.1599    -4.3819 H       
  64 H64            8.3317    -0.6674    -5.8016 H       
  65 H65            9.7296     0.9523    -7.0197 H       
  66 H66            7.1097     4.1049    -5.8276 H       
  67 H67            5.7090     2.4809    -4.6184 H       
  68 Cl68          16.6582     9.1049     7.2213 Cl      
  69 H69           16.6582    10.4749     7.2213 H       
@<TRIPOS>BOND
   1    1    2 1
   2    1    3 2
   3    1    4 am
   4    2    5 1
   5    2   34 1
   6    2   35 1
   7    4   36 1
   8    4   37 1
   9    5    6 1
  10    6    7 ar
  11    6   11 ar
  12    7    8 ar
  13    7   12 1
  14    8    9 ar
  15    8   38 1
  16    9   10 ar
  17    9   39 1
  18   10   11 ar
  19   10   40 1
  20   11   41 1
  21   12   13 1
  22   13   14 1
  23   13   18 1
  24   13   42 1
  25   14   15 1
  26   14   23 1
  27   14   43 1
  28   15   16 1
  29   15   44 1
  30   15   45 1
  31   16   17 1
  32   16   20 1
  33   16   46 1
  34   17   18 1
  35   17   19 1
  36   17   47 1
  37   18   33 1
  38   18   48 1
  39   19   49 1
  40   19   50 1
  41   19   51 1
  42   20   21 1
  43   20   22 1
  44   20   52 1
  45   21   53 1
  46   21   54 1
  47   21   55 1
  48   22   56 1
  49   22   57 1
  50   22   58 1
  51   23   24 1
  52   23   59 1
  53   23   60 1
  54   24   25 1
  55   24   61 1
  56   25   26 1
  57   25   62 1
  58   25   63 1
  59   26   27 ar
  60   26   31 ar
  61   27   28 ar
  62   27   64 1
  63   28   29 ar
  64   28   65 1
  65   29   30 ar
  66   29   32 1
  67   30   31 ar
  68   30   66 1
  69   31   67 1
  70   68   69 1

#	End of record

