#	Name: ASD02500888
#	Creating user name:	WinNT
#	Creation time:	15. 06. 2019 20:23

#	Modifying user name:	WinNT
#	Modification time:	15. 06. 2019 20:23

#	Program:	/corina/corina34_cracker 3.40 0067  02.08.2006

@<TRIPOS>MOLECULE
ASD02500888
  40   42    0    0    0
SMALL
NO_CHARGES


@<TRIPOS>ATOM
   1 C1            -0.0162     1.3778     0.0105 C.ar    
   2 C2            -0.5441     0.9274     1.2066 C.ar    
   3 C3            -1.7316     0.2222     1.2169 C.ar    
   4 C4            -2.3954    -0.0344     0.0247 C.ar    
   5 C5            -1.8628     0.4191    -1.1746 C.ar    
   6 C6            -0.6779     1.1287    -1.1779 C.ar    
   7 N7            -3.6000    -0.7501     0.0319 N.am    
   8 C8            -3.5925    -2.0837    -0.0760 C.2     
   9 S9            -5.2833    -2.6128    -0.0269 S.3     
  10 C10           -5.9397    -0.9724     0.1410 C.2     
  11 C11           -4.7528    -0.1128     0.1510 C.2     
  12 C12           -7.2479    -0.5981     0.2415 C.2     
  13 C13           -7.5830     0.7645     0.3691 C.2     
  14 C14           -8.8813     1.1359     0.4688 C.2     
  15 C15           -9.2310     2.5577     0.6020 C.ar    
  16 C16          -10.5715     2.9457     0.7054 C.ar    
  17 C17          -10.8909     4.2810     0.8299 C.ar    
  18 C18           -9.8899     5.2368     0.8529 C.ar    
  19 C19           -8.5615     4.8613     0.7507 C.ar    
  20 C20           -8.2248     3.5297     0.6319 C.ar    
  21 O21           -4.8232     1.0983     0.2538 O.2     
  22 S22           -2.2139    -3.0867    -0.2322 S.2     
  23 S23            1.4989     2.2772     0.0013 S.o2    
  24 N24            2.7233     1.1734    -0.1567 N.am    
  25 O25            1.4994     3.0504    -1.1909 O.2     
  26 O26            1.6359     2.8457     1.2965 O.2     
  27 H27           -0.0271     1.1271     2.1335 H       
  28 H28           -2.1432    -0.1296     2.1514 H       
  29 H29           -2.3769     0.2210    -2.1036 H       
  30 H30           -0.2631     1.4817    -2.1105 H       
  31 H31           -8.0266    -1.3463     0.2232 H       
  32 H32           -6.8044     1.5126     0.3874 H       
  33 H33           -9.6600     0.3877     0.4506 H       
  34 H34          -11.3537     2.2012     0.6873 H       
  35 H35          -11.9250     4.5822     0.9094 H       
  36 H36          -10.1468     6.2812     0.9507 H       
  37 H37           -7.7864     5.6132     0.7687 H       
  38 H38           -7.1879     3.2384     0.5526 H       
  39 H39            2.5181     0.2277    -0.2233 H       
  40 H40            3.6456     1.4725    -0.1827 H       
@<TRIPOS>BOND
   1    1    2 ar
   2    1   23 1
   3    1    6 ar
   4    2    3 ar
   5    2   27 1
   6    3    4 ar
   7    3   28 1
   8    4    5 ar
   9    4    7 1
  10    5    6 ar
  11    5   29 1
  12    6   30 1
  13    7    8 am
  14    7   11 am
  15    8    9 1
  16    8   22 2
  17    9   10 1
  18   10   11 1
  19   10   12 2
  20   11   21 2
  21   12   13 1
  22   12   31 1
  23   13   14 2
  24   13   32 1
  25   14   15 1
  26   14   33 1
  27   15   16 ar
  28   15   20 ar
  29   16   17 ar
  30   16   34 1
  31   17   18 ar
  32   17   35 1
  33   18   19 ar
  34   18   36 1
  35   19   20 ar
  36   19   37 1
  37   20   38 1
  38   23   24 am
  39   23   25 2
  40   23   26 2
  41   24   39 1
  42   24   40 1

#	End of record

