#	Name: ASD01420334
#	Creating user name:	WinNT
#	Creation time:	15. 06. 2019 19:20

#	Modifying user name:	WinNT
#	Modification time:	15. 06. 2019 19:20

#	Program:	/corina/corina34_cracker 3.40 0067  02.08.2006

@<TRIPOS>MOLECULE
ASD01420334
  30   30    0    0    0
SMALL
NO_CHARGES


@<TRIPOS>ATOM
   1 C1            -0.0162     1.3436     0.0094 C.2     
   2 N2             0.0021    -0.0041     0.0020 N.am    
   3 O3             1.0277     1.9654     0.0028 O.2     
   4 O4            -1.1912     2.0008     0.0186 O.3     
   5 C5             1.2806    -0.7192    -0.0140 C.3     
   6 C6             1.7220    -0.9662     1.3683 C.1     
   7 C7             2.0741    -1.1632     2.4708 C.1     
   8 C8            -1.2565    -0.7538     0.0100 C.3     
   9 C9            -1.6913    -0.9974    -1.3750 C.1     
  10 C10           -2.0381    -1.1917    -2.4797 C.1     
  11 C11           -1.1349     3.4517     0.0262 C.3     
  12 C12           -2.5351     4.0087     0.0359 C.ar    
  13 C13           -3.1717     4.2577     1.2374 C.ar    
  14 C14           -4.4561     4.7686     1.2463 C.ar    
  15 C15           -5.1038     5.0309     0.0536 C.ar    
  16 C16           -4.4670     4.7828    -1.1480 C.ar    
  17 C17           -3.1809     4.2760    -1.1568 C.ar    
  18 H18            1.1583    -1.6705    -0.5318 H       
  19 H19            2.0272    -0.1171    -0.5318 H       
  20 H20            2.3890    -1.3393     3.4569 H       
  21 H21           -1.1084    -1.7071     0.5173 H       
  22 H22           -2.0192    -0.1778     0.5342 H       
  23 H23           -2.3483    -1.3655    -3.4677 H       
  24 H24           -0.6031     3.7900     0.9155 H       
  25 H25           -0.6116     3.7997    -0.8644 H       
  26 H26           -2.6656     4.0527     2.1692 H       
  27 H27           -4.9537     4.9624     2.1850 H       
  28 H28           -6.1076     5.4294     0.0605 H       
  29 H29           -4.9732     4.9875    -2.0798 H       
  30 H30           -2.6820     4.0856    -2.0955 H       
@<TRIPOS>BOND
   1    1    2 am
   2    1    3 2
   3    1    4 1
   4    2    5 1
   5    2    8 1
   6    4   11 1
   7    5    6 1
   8    5   18 1
   9    5   19 1
  10    6    7 3
  11    7   20 1
  12    8    9 1
  13    8   21 1
  14    8   22 1
  15    9   10 3
  16   10   23 1
  17   11   12 1
  18   11   24 1
  19   11   25 1
  20   12   13 ar
  21   12   17 ar
  22   13   14 ar
  23   13   26 1
  24   14   15 ar
  25   14   27 1
  26   15   16 ar
  27   15   28 1
  28   16   17 ar
  29   16   29 1
  30   17   30 1

#	End of record

