#	Name: ASD00111089
#	Creating user name:	WinNT
#	Creation time:	15. 06. 2019 18:30

#	Modifying user name:	WinNT
#	Modification time:	15. 06. 2019 18:30

#	Program:	/corina/corina34_cracker 3.40 0067  02.08.2006

@<TRIPOS>MOLECULE
ASD00111089
  37   38    0    0    0
SMALL
NO_CHARGES


@<TRIPOS>ATOM
   1 N1             1.1592     1.6583     0.3194 N.am    
   2 C2             0.6611     0.3195     0.0196 C.3     
   3 C3             0.6302    -0.5204     1.3012 C.3     
   4 C4             2.0236    -1.0432     1.5712 C.ar    
   5 C5             3.0175    -0.1873     1.9786 C.ar    
   6 C6             2.7279     1.2860     2.1611 C.3     
   7 C7             2.5190     1.9195     0.7811 C.3     
   8 C8             4.2912    -0.6653     2.2263 C.ar    
   9 C9             4.5630    -2.0162     2.0614 C.ar    
  10 C10            3.5577    -2.8786     1.6495 C.ar    
  11 C11            2.2878    -2.3917     1.4044 C.ar    
  12 O12            5.8124    -2.4934     2.3028 O.3     
  13 C13            6.0198    -3.8944     2.1125 C.3     
  14 C14            0.1720     0.3491     2.4739 C.3     
  15 O15           -1.2520     0.2936     2.5801 O.3     
  16 C16            0.3251     2.7044     0.1569 C.2     
  17 O17           -0.8096     2.5207    -0.2300 O.2     
  18 C18            0.8022     4.1022     0.4561 C.3     
  19 F19           -0.2339     5.0105     0.2138 F       
  20 F20            1.1910     4.1852     1.7974 F       
  21 F21            1.8924     4.4086    -0.3653 F       
  22 H22           -0.3459     0.3910    -0.3914 H       
  23 H23            1.3165    -0.1562    -0.7099 H       
  24 H24           -0.0562    -1.3575     1.1735 H       
  25 H25            1.8261     1.4099     2.7606 H       
  26 H26            3.5703     1.7652     2.6600 H       
  27 H27            3.2303     1.4919     0.0745 H       
  28 H28            2.6786     2.9957     0.8484 H       
  29 H29            5.0712     0.0098     2.5463 H       
  30 H30            3.7674    -3.9301     1.5199 H       
  31 H31            1.5038    -3.0614     1.0834 H       
  32 H32            5.3597    -4.4529     2.7762 H       
  33 H33            5.8010    -4.1568     1.0774 H       
  34 H34            7.0568    -4.1423     2.3387 H       
  35 H35            0.6199    -0.0200     3.3965 H       
  36 H36            0.4839     1.3798     2.3055 H       
  37 H37           -1.6132     0.8229     3.3043 H       
@<TRIPOS>BOND
   1    1    2 1
   2    1    7 1
   3    1   16 am
   4    2    3 1
   5    2   22 1
   6    2   23 1
   7    3    4 1
   8    3   14 1
   9    3   24 1
  10    4    5 ar
  11    4   11 ar
  12    5    6 1
  13    5    8 ar
  14    6    7 1
  15    6   25 1
  16    6   26 1
  17    7   27 1
  18    7   28 1
  19    8    9 ar
  20    8   29 1
  21    9   10 ar
  22    9   12 1
  23   10   11 ar
  24   10   30 1
  25   11   31 1
  26   12   13 1
  27   13   32 1
  28   13   33 1
  29   13   34 1
  30   14   15 1
  31   14   35 1
  32   14   36 1
  33   15   37 1
  34   16   17 2
  35   16   18 1
  36   18   19 1
  37   18   20 1
  38   18   21 1

#	End of record

