#	Name: ASD03731712
#	Creating user name:	WinNT
#	Creation time:	15. 06. 2019 20:46

#	Modifying user name:	WinNT
#	Modification time:	15. 06. 2019 20:46

#	Program:	/corina/corina34_cracker 3.40 0067  02.08.2006

@<TRIPOS>MOLECULE
ASD03731712
  39   40    0    0    0
SMALL
NO_CHARGES


@<TRIPOS>ATOM
   1 C1             0.7598     1.4151    -0.4030 C.2     
   2 C2             0.5750    -0.0458    -0.3023 C.ar    
   3 C3             1.5337    -0.9116    -0.8352 C.ar    
   4 C4             1.3579    -2.2739    -0.7388 C.ar    
   5 C5             0.2282    -2.7882    -0.1128 C.ar    
   6 C6            -0.7278    -1.9302     0.4186 C.ar    
   7 C7            -0.5564    -0.5667     0.3313 C.ar    
   8 O8             1.7473     1.8666    -0.9501 O.2     
   9 N9            -0.1686     2.2485     0.1067 N.am    
  10 S10            0.0388     3.8876    -0.0063 S.o2    
  11 O11           -1.0998     4.4308     0.6478 O.2     
  12 O12            1.3487     4.1106     0.4972 O.2     
  13 C13           -0.0259     4.2304    -1.7864 C.3     
  14 O14            0.0581    -4.1313    -0.0206 O.3     
  15 C15            0.5843    -4.7685     1.0581 C.ar    
  16 C16            0.5361    -6.1530     1.1394 C.ar    
  17 C17            1.0717    -6.7982     2.2369 C.ar    
  18 C18            1.6552    -6.0656     3.2545 C.ar    
  19 C19            1.7041    -4.6862     3.1761 C.ar    
  20 C20            1.1758    -4.0363     2.0774 C.ar    
  21 C21            2.2383    -6.7722     4.4510 C.3     
  22 C22           -0.1005    -6.9519     0.0314 C.3     
  23 H23            2.4113    -0.5128    -1.3223 H       
  24 H24            2.0984    -2.9437    -1.1504 H       
  25 H25           -1.6043    -2.3335     0.9039 H       
  26 H26           -1.2975     0.0992     0.7480 H       
  27 H27           -0.9584     1.8883     0.5397 H       
  28 H28           -0.9909     3.9141    -2.1825 H       
  29 H29            0.1035     5.2994    -1.9555 H       
  30 H30            0.7708     3.6837    -2.2909 H       
  31 H31            1.0344    -7.8756     2.3007 H       
  32 H32            2.1600    -4.1164     3.9723 H       
  33 H33            1.2188    -2.9590     2.0142 H       
  34 H34            3.2868    -7.0022     4.2618 H       
  35 H35            2.1599    -6.1283     5.3270 H       
  36 H36            1.6899    -7.6971     4.6297 H       
  37 H37            0.6536    -7.2042    -0.7141 H       
  38 H38           -0.5262    -7.8675     0.4420 H       
  39 H39           -0.8894    -6.3617    -0.4350 H       
@<TRIPOS>BOND
   1    1    2 1
   2    1    8 2
   3    1    9 am
   4    2    3 ar
   5    2    7 ar
   6    3    4 ar
   7    3   23 1
   8    4    5 ar
   9    4   24 1
  10    5    6 ar
  11    5   14 1
  12    6    7 ar
  13    6   25 1
  14    7   26 1
  15    9   10 am
  16    9   27 1
  17   10   11 2
  18   10   12 2
  19   10   13 1
  20   13   28 1
  21   13   29 1
  22   13   30 1
  23   14   15 1
  24   15   16 ar
  25   15   20 ar
  26   16   17 ar
  27   16   22 1
  28   17   18 ar
  29   17   31 1
  30   18   19 ar
  31   18   21 1
  32   19   20 ar
  33   19   32 1
  34   20   33 1
  35   21   34 1
  36   21   35 1
  37   21   36 1
  38   22   37 1
  39   22   38 1
  40   22   39 1

#	End of record

