#	Name: ASD02398004
#	Creating user name:	WinNT
#	Creation time:	15. 06. 2019 20:20

#	Modifying user name:	WinNT
#	Modification time:	15. 06. 2019 20:20

#	Program:	/corina/corina34_cracker 3.40 0067  02.08.2006

@<TRIPOS>MOLECULE
ASD02398004
  25   25    0    0    0
SMALL
NO_CHARGES


@<TRIPOS>ATOM
   1 C1            -0.0168     1.3841     0.0097 C.ar    
   2 C2             0.0021    -0.0041     0.0020 C.ar    
   3 C3            -1.1861    -0.7098     0.0101 C.ar    
   4 C4            -2.3926    -0.0342     0.0252 C.ar    
   5 C5            -2.4135     1.3480     0.0328 C.ar    
   6 C6            -1.2283     2.0585     0.0306 C.ar    
   7 C7            -3.6868    -0.8061     0.0330 C.3     
   8 C8            -4.1049    -1.0715     1.4563 C.2     
   9 O9            -3.4220    -0.6746     2.3706 O.2     
  10 O10           -5.2360    -1.7489     1.7083 O.3     
  11 C11           -5.5765    -1.9677     3.1027 C.3     
  12 Br12           1.6517    -0.9282    -0.0200 Br      
  13 O13            1.1502     2.0808     0.0023 O.3     
  14 C14            1.0546     3.5066     0.0108 C.3     
  15 H15           -1.1723    -1.7897     0.0041 H       
  16 H16           -3.3572     1.8731     0.0447 H       
  17 H17           -1.2456     3.1384     0.0369 H       
  18 H18           -4.4595    -0.2249    -0.4703 H       
  19 H19           -3.5479    -1.7536    -0.4876 H       
  20 H20           -4.7814    -2.5352     3.5862 H       
  21 H21           -5.6930    -1.0065     3.6035 H       
  22 H22           -6.5109    -2.5256     3.1654 H       
  23 H23            0.5092     3.8395    -0.8722 H       
  24 H24            0.5262     3.8300     0.9076 H       
  25 H25            2.0556     3.9379     0.0036 H       
@<TRIPOS>BOND
   1    1    2 ar
   2    1   13 1
   3    1    6 ar
   4    2    3 ar
   5    2   12 1
   6    3    4 ar
   7    3   15 1
   8    4    5 ar
   9    4    7 1
  10    5    6 ar
  11    5   16 1
  12    6   17 1
  13    7    8 1
  14    7   18 1
  15    7   19 1
  16    8    9 2
  17    8   10 1
  18   10   11 1
  19   11   20 1
  20   11   21 1
  21   11   22 1
  22   13   14 1
  23   14   23 1
  24   14   24 1
  25   14   25 1

#	End of record

