#	Name: ASD01881396
#	Creating user name:	WinNT
#	Creation time:	15. 06. 2019 19:42

#	Modifying user name:	WinNT
#	Modification time:	15. 06. 2019 19:42

#	Program:	/corina/corina34_cracker 3.40 0067  02.08.2006

@<TRIPOS>MOLECULE
ASD01881396
  33   35    0    0    0
SMALL
NO_CHARGES


@<TRIPOS>ATOM
   1 O1            -0.0769     1.3363     0.0422 O.3     
   2 C2             0.0141    -0.0900    -0.0369 C.3     
   3 C3             1.0638    -0.5528     0.9818 C.3     
   4 N4             2.3662     0.0040     0.5975 N.3     
   5 C5             2.3009     1.3812     0.3599 C.ar    
   6 C6             1.0984     2.0223     0.0856 C.ar    
   7 C7             3.4785     2.1203     0.4007 C.ar    
   8 C8             3.4543     3.4813     0.1673 C.ar    
   9 C9             2.2573     4.1167    -0.1082 C.ar    
  10 C10            1.0818     3.3894    -0.1495 C.ar    
  11 C11            4.0036    -0.1281     4.0160 C.3     
  12 C12            2.9707     0.2698     2.9583 C.3     
  13 C13            3.3900    -0.3087     1.6034 C.3     
  14 C14            3.5346    -1.8282     1.7321 C.3     
  15 C15            4.5457    -2.1450     2.8371 C.3     
  16 O16            4.1113    -1.5523     4.0627 O.3     
  17 Br17           2.2279     5.9801    -0.4284 Br      
  18 H18           -0.9521    -0.5350     0.2011 H       
  19 H19            0.3194    -0.3849    -1.0409 H       
  20 H20            0.7920    -0.1958     1.9752 H       
  21 H21            1.1173    -1.6415     0.9833 H       
  22 H22            4.4154     1.6280     0.6160 H       
  23 H23            4.3716     4.0503     0.2004 H       
  24 H24            0.1480     3.8874    -0.3651 H       
  25 H25            4.9717     0.3014     3.7582 H       
  26 H26            3.6882     0.2448     4.9904 H       
  27 H27            1.9937    -0.1254     3.2365 H       
  28 H28            2.9191     1.3564     2.8902 H       
  29 H29            4.3430     0.1252     1.3008 H       
  30 H30            2.5690    -2.2658     1.9855 H       
  31 H31            3.8863    -2.2420     0.7870 H       
  32 H32            4.6208    -3.2252     2.9623 H       
  33 H33            5.5209    -1.7420     2.5639 H       
@<TRIPOS>BOND
   1    1    2 1
   2    1    6 1
   3    2    3 1
   4    2   18 1
   5    2   19 1
   6    3    4 1
   7    3   20 1
   8    3   21 1
   9    4    5 1
  10    4   13 1
  11    5    6 ar
  12    5    7 ar
  13    6   10 ar
  14    7    8 ar
  15    7   22 1
  16    8    9 ar
  17    8   23 1
  18    9   10 ar
  19    9   17 1
  20   10   24 1
  21   11   12 1
  22   11   16 1
  23   11   25 1
  24   11   26 1
  25   12   13 1
  26   12   27 1
  27   12   28 1
  28   13   14 1
  29   13   29 1
  30   14   15 1
  31   14   30 1
  32   14   31 1
  33   15   16 1
  34   15   32 1
  35   15   33 1

#	End of record

