#	Name: ASD01410207
#	Creating user name:	WinNT
#	Creation time:	15. 06. 2019 19:16

#	Modifying user name:	WinNT
#	Modification time:	15. 06. 2019 19:16

#	Program:	/corina/corina34_cracker 3.40 0067  02.08.2006

@<TRIPOS>MOLECULE
ASD01410207
  41   43    0    0    0
SMALL
NO_CHARGES


@<TRIPOS>ATOM
   1 C1             0.0556     1.2529     0.0611 C.2     
   2 N2            -0.0739    -0.1014    -0.0455 N.pl3   
   3 N3            -1.3171    -0.4237    -0.0683 N.2     
   4 C4            -2.0740     0.6549     0.0183 C.2     
   5 C5            -1.2089     1.7691     0.1096 C.2     
   6 C6             1.0412    -1.0484    -0.1229 C.3     
   7 C7             1.0688    -1.9083     1.1422 C.3     
   8 C8             2.2333    -2.8974     1.0613 C.3     
   9 C9             2.0541    -3.7972    -0.1631 C.3     
  10 C10            2.0265    -2.9373    -1.4283 C.3     
  11 C11            0.8620    -1.9482    -1.3473 C.3     
  12 C12           -3.5448     0.6900     0.0241 C.2     
  13 C13           -4.2477    -0.4590    -0.0646 C.2     
  14 C14           -5.7085    -0.4242    -0.0588 C.2     
  15 O15           -6.4110    -1.5726    -0.1475 O.3     
  16 O16           -6.2911     0.6402     0.0259 O.2     
  17 C17            1.3219     2.0155     0.1194 C.ar    
  18 N18            2.4774     1.3677     0.2091 N.ar    
  19 C19            3.6265     2.0100     0.2634 C.ar    
  20 C20            3.6703     3.3914     0.2286 C.ar    
  21 C21            2.4853     4.1085     0.1352 C.ar    
  22 C22            1.2930     3.4095     0.0740 C.ar    
  23 H23           -1.4881     2.8090     0.1940 H       
  24 H24            1.9788    -0.4994    -0.2096 H       
  25 H25            1.1965    -1.2673     2.0145 H       
  26 H26            0.1311    -2.4573     1.2289 H       
  27 H27            3.1709    -2.3484     0.9746 H       
  28 H28            2.2530    -3.5100     1.9627 H       
  29 H29            2.8837    -4.5018    -0.2207 H       
  30 H30            1.1164    -4.3462    -0.0764 H       
  31 H31            2.9641    -2.3882    -1.5149 H       
  32 H32            1.8988    -3.5783    -2.3005 H       
  33 H33           -0.0757    -2.4972    -1.2607 H       
  34 H34            0.8423    -1.3356    -2.2487 H       
  35 H35           -4.0621     1.6350     0.0994 H       
  36 H36           -3.7304    -1.4041    -0.1398 H       
  37 H37           -7.3700    -1.4489    -0.1358 H       
  38 H38            4.5469     1.4497     0.3363 H       
  39 H39            4.6177     3.9079     0.2740 H       
  40 H40            2.4943     5.1881     0.1064 H       
  41 H41            0.3527     3.9357     0.0006 H       
@<TRIPOS>BOND
   1    1    2 1
   2    1   17 1
   3    1    5 2
   4    2    3 1
   5    2    6 1
   6    3    4 2
   7    4    5 1
   8    4   12 1
   9    5   23 1
  10    6    7 1
  11    6   11 1
  12    6   24 1
  13    7    8 1
  14    7   25 1
  15    7   26 1
  16    8    9 1
  17    8   27 1
  18    8   28 1
  19    9   10 1
  20    9   29 1
  21    9   30 1
  22   10   11 1
  23   10   31 1
  24   10   32 1
  25   11   33 1
  26   11   34 1
  27   12   13 2
  28   12   35 1
  29   13   14 1
  30   13   36 1
  31   14   15 1
  32   14   16 2
  33   15   37 1
  34   17   18 ar
  35   17   22 ar
  36   18   19 ar
  37   19   20 ar
  38   19   38 1
  39   20   21 ar
  40   20   39 1
  41   21   22 ar
  42   21   40 1
  43   22   41 1

#	End of record

