#	Name: ASD05430624
#	Creating user name:	WinNT
#	Creation time:	15. 06. 2019 21:00

#	Modifying user name:	WinNT
#	Modification time:	15. 06. 2019 21:00

#	Program:	/corina/corina34_cracker 3.40 0067  02.08.2006

@<TRIPOS>MOLECULE
ASD05430624
  36   38    0    0    0
SMALL
NO_CHARGES


@<TRIPOS>ATOM
   1 C1            -0.0628     1.4398     0.0065 C.ar    
   2 C2            -0.0279     0.0464    -0.0469 C.ar    
   3 C3             1.1903    -0.6061    -0.1209 C.ar    
   4 C4             2.3750     0.1143    -0.1419 C.ar    
   5 C5             2.3593     1.4798    -0.0902 C.ar    
   6 C6             1.1413     2.1606    -0.0156 C.ar    
   7 C7             3.6541     2.2505    -0.1132 C.3     
   8 C8             4.4427     1.9611     1.1656 C.3     
   9 C9             4.4797     1.8244    -1.3288 C.3     
  10 N10           -1.2220    -0.6900    -0.0253 N.pl3   
  11 C11           -2.2423    -0.5476     0.8596 C.2     
  12 C12           -1.5815    -1.6850    -0.8969 C.2     
  13 C13           -2.7980    -2.1179    -0.5144 C.2     
  14 N14           -3.1770    -1.4076     0.5583 N.2     
  15 C15           -3.5975    -3.2085    -1.1796 C.3     
  16 C16            0.7763     3.5786     0.0531 C.2     
  17 N17           -0.5184     3.6442     0.1084 N.2     
  18 O18           -1.0638     2.3405     0.0756 O.3     
  19 C19            1.7296     4.7457     0.0591 C.3     
  20 H20            1.2185    -1.6850    -0.1624 H       
  21 H21            3.3183    -0.4084    -0.1991 H       
  22 H22            3.4408     3.3176    -0.1749 H       
  23 H23            5.3792     2.5185     1.1490 H       
  24 H24            3.8545     2.2647     2.0317 H       
  25 H25            4.6560     0.8940     1.2273 H       
  26 H26            3.9180     2.0305    -2.2399 H       
  27 H27            5.4163     2.3818    -1.3455 H       
  28 H28            4.6931     0.7573    -1.2672 H       
  29 H29           -2.2749     0.1588     1.6759 H       
  30 H30           -1.0008    -2.0512    -1.7306 H       
  31 H31           -3.3495    -4.1685    -0.7270 H       
  32 H32           -4.6614    -3.0097    -1.0500 H       
  33 H33           -3.3600    -3.2359    -2.2431 H       
  34 H34            2.0078     4.9928    -0.9654 H       
  35 H35            1.2472     5.6065     0.5222 H       
  36 H36            2.6232     4.4820     0.6248 H       
@<TRIPOS>BOND
   1    1    2 ar
   2    1    6 ar
   3    1   18 1
   4    2    3 ar
   5    2   10 1
   6    3    4 ar
   7    3   20 1
   8    4    5 ar
   9    4   21 1
  10    5    6 ar
  11    5    7 1
  12    6   16 1
  13    7    8 1
  14    7    9 1
  15    7   22 1
  16    8   23 1
  17    8   24 1
  18    8   25 1
  19    9   26 1
  20    9   27 1
  21    9   28 1
  22   10   11 1
  23   10   12 1
  24   11   14 2
  25   11   29 1
  26   12   13 2
  27   12   30 1
  28   13   14 1
  29   13   15 1
  30   15   31 1
  31   15   32 1
  32   15   33 1
  33   16   17 2
  34   16   19 1
  35   17   18 1
  36   19   34 1
  37   19   35 1
  38   19   36 1

#	End of record

