#	Name: ASD01811093
#	Creating user name:	WinNT
#	Creation time:	15. 06. 2019 19:26

#	Modifying user name:	WinNT
#	Modification time:	15. 06. 2019 19:26

#	Program:	/corina/corina34_cracker 3.40 0067  02.08.2006

@<TRIPOS>MOLECULE
ASD01811093
  49   52    0    0    0
SMALL
NO_CHARGES


@<TRIPOS>ATOM
   1 C1            -0.6637     1.4725     0.0040 C.2     
   2 C2            -0.4076     0.1541    -0.0325 C.2     
   3 N3            -1.4203    -0.7579     0.0643 N.pl3   
   4 C4            -2.7090    -0.4178     0.1861 C.2     
   5 C5            -3.0746     0.9133     0.2228 C.2     
   6 C6            -2.0085     1.9192     0.1320 C.2     
   7 C7            -1.0779    -2.1820     0.0326 C.3     
   8 C8            -1.2003    -2.6968    -1.3785 C.ar    
   9 O9            -2.2707     3.1112     0.1582 O.2     
  10 C10           -4.4854     1.3106     0.3533 C.2     
  11 O11           -5.3513     0.4613     0.4307 O.2     
  12 O12           -4.8173     2.6165     0.3869 O.3     
  13 C13           -0.0795    -2.7666    -2.1861 C.ar    
  14 C14           -0.1859    -3.2373    -3.4792 C.ar    
  15 C15           -1.4251    -3.6425    -3.9706 C.ar    
  16 C16           -2.5508    -3.5700    -3.1527 C.ar    
  17 C17           -2.4320    -3.1030    -1.8593 C.ar    
  18 C18           -1.5457    -4.1490    -5.3602 C.ar    
  19 C19           -2.7850    -4.5542    -5.8516 C.ar    
  20 C20           -2.8914    -5.0245    -7.1449 C.ar    
  21 C21           -1.7706    -5.0944    -7.9525 C.ar    
  22 C22           -0.5378    -4.6939    -7.4696 C.ar    
  23 C23           -0.4211    -4.2157    -6.1802 C.ar    
  24 C24            0.4095     2.5252    -0.0780 C.3     
  25 C25            1.7037     1.9370    -0.6357 C.3     
  26 C26            2.0306     0.6651     0.1567 C.3     
  27 C27            0.9890    -0.3953    -0.1904 C.3     
  28 O28           -0.0329     3.5824    -0.9316 O.3     
  29 H29           -3.4647    -1.1862     0.2555 H       
  30 H30           -0.0541    -2.3173     0.3812 H       
  31 H31           -1.7585    -2.7338     0.6810 H       
  32 H32           -5.7568     2.8285     0.4736 H       
  33 H33            0.8805    -2.4519    -1.8043 H       
  34 H34            0.6898    -3.2911    -4.1090 H       
  35 H35           -3.5137    -3.8829    -3.5286 H       
  36 H36           -3.3038    -3.0464    -1.2244 H       
  37 H37           -3.6606    -4.5008    -5.2217 H       
  38 H38           -3.8514    -5.3389    -7.5268 H       
  39 H39           -1.8583    -5.4634    -8.9637 H       
  40 H40            0.3341    -4.7509    -8.1044 H       
  41 H41            0.5418    -3.9029    -5.8042 H       
  42 H42            0.5972     2.9246     0.9187 H       
  43 H43            1.5718     1.6904    -1.6892 H       
  44 H44            2.5135     2.6581    -0.5245 H       
  45 H45            3.0238     0.3077    -0.1151 H       
  46 H46            1.9957     0.8785     1.2251 H       
  47 H47            1.1146    -1.2519     0.4719 H       
  48 H48            1.1338    -0.7162    -1.2220 H       
  49 H49            0.6075     4.2997    -1.0336 H       
@<TRIPOS>BOND
   1    1    2 2
   2    1   24 1
   3    1    6 1
   4    2    3 1
   5    2   27 1
   6    3    4 1
   7    3    7 1
   8    4    5 2
   9    4   29 1
  10    5    6 1
  11    5   10 1
  12    6    9 2
  13    7    8 1
  14    7   30 1
  15    7   31 1
  16    8   13 ar
  17    8   17 ar
  18   10   11 2
  19   10   12 1
  20   12   32 1
  21   13   14 ar
  22   13   33 1
  23   14   15 ar
  24   14   34 1
  25   15   16 ar
  26   15   18 1
  27   16   17 ar
  28   16   35 1
  29   17   36 1
  30   18   19 ar
  31   18   23 ar
  32   19   20 ar
  33   19   37 1
  34   20   21 ar
  35   20   38 1
  36   21   22 ar
  37   21   39 1
  38   22   23 ar
  39   22   40 1
  40   23   41 1
  41   24   25 1
  42   24   28 1
  43   24   42 1
  44   25   26 1
  45   25   43 1
  46   25   44 1
  47   26   27 1
  48   26   45 1
  49   26   46 1
  50   27   47 1
  51   27   48 1
  52   28   49 1

#	End of record

