#	Name: ASD01880250
#	Creating user name:	WinNT
#	Creation time:	15. 06. 2019 19:40

#	Modifying user name:	WinNT
#	Modification time:	15. 06. 2019 19:40

#	Program:	/corina/corina34_cracker 3.40 0067  02.08.2006

@<TRIPOS>MOLECULE
ASD01880250
  50   54    0    0    0
SMALL
NO_CHARGES


@<TRIPOS>ATOM
   1 C1             1.0799    -0.2232    -0.3826 C.3     
   2 N2             1.8757    -0.7806     0.7192 N.3     
   3 C3             3.3150    -0.6617     0.4503 C.3     
   4 C4             3.6935     0.8205     0.3594 C.3     
   5 N5             2.8201     1.4658    -0.6325 N.pl3   
   6 C6             1.3668     1.2769    -0.5075 C.3     
   7 C7             1.5215    -2.1081     0.9708 C.ar    
   8 C8             3.3508     2.2298    -1.6545 C.2     
   9 C9             4.1829     1.6432    -2.6257 C.2     
  10 C10            4.7059     2.3777    -3.6262 C.2     
  11 N11            4.4576     3.7127    -3.7459 N.pl3   
  12 C12            3.6571     4.3611    -2.8415 C.2     
  13 C13            3.0632     3.5983    -1.7416 C.2     
  14 C14            4.8693     4.6594    -4.6630 C.2     
  15 C15            4.3078     5.8432    -4.2860 C.2     
  16 N16            3.5827     5.6359    -3.1862 N.2     
  17 C17            5.7492     4.4333    -5.8277 C.ar    
  18 C18            2.2211     4.2359    -0.7747 C.1     
  19 N19            1.5530     4.7418    -0.0077 N.1     
  20 C20            2.1596    -2.8197     1.9788 C.ar    
  21 C21            1.8066    -4.1319     2.2253 C.ar    
  22 C22            0.8192    -4.7375     1.4699 C.ar    
  23 C23            0.1820    -4.0320     0.4656 C.ar    
  24 C24            0.5264    -2.7178     0.2174 C.ar    
  25 C25            6.6146     3.3375    -5.8507 C.ar    
  26 C26            7.4332     3.1321    -6.9417 C.ar    
  27 C27            7.3982     4.0087    -8.0118 C.ar    
  28 C28            6.5434     5.0968    -7.9954 C.ar    
  29 C29            5.7152     5.3110    -6.9133 C.ar    
  30 H30            1.3470    -0.7234    -1.3135 H       
  31 H31            0.0199    -0.3751    -0.1788 H       
  32 H32            3.8760    -1.1315     1.2581 H       
  33 H33            3.5509    -1.1557    -0.4923 H       
  34 H34            3.5557     1.2938     1.3316 H       
  35 H35            4.7337     0.9143     0.0475 H       
  36 H36            0.8687     1.6725    -1.3927 H       
  37 H37            1.0054     1.7941     0.3813 H       
  38 H38            4.4060     0.5881    -2.5677 H       
  39 H39            5.3406     1.8950    -4.3545 H       
  40 H40            4.4301     6.7893    -4.7922 H       
  41 H41            2.9310    -2.3474     2.5689 H       
  42 H42            2.3025    -4.6859     3.0086 H       
  43 H43            0.5454    -5.7639     1.6644 H       
  44 H44           -0.5887    -4.5080    -0.1225 H       
  45 H45            0.0282    -2.1673    -0.5668 H       
  46 H46            6.6432     2.6528    -5.0160 H       
  47 H47            8.1033     2.2853    -6.9607 H       
  48 H48            8.0413     3.8432    -8.8635 H       
  49 H49            6.5214     5.7773    -8.8338 H       
  50 H50            5.0482     6.1603    -6.9020 H       
@<TRIPOS>BOND
   1    1    2 1
   2    1    6 1
   3    1   30 1
   4    1   31 1
   5    2    3 1
   6    2    7 1
   7    3    4 1
   8    3   32 1
   9    3   33 1
  10    4    5 1
  11    4   34 1
  12    4   35 1
  13    5    6 1
  14    5    8 1
  15    6   36 1
  16    6   37 1
  17    7   20 ar
  18    7   24 ar
  19    8    9 1
  20    8   13 2
  21    9   10 2
  22    9   38 1
  23   10   11 1
  24   10   39 1
  25   11   12 1
  26   11   14 1
  27   12   13 1
  28   12   16 2
  29   13   18 1
  30   14   15 2
  31   14   17 1
  32   15   16 1
  33   15   40 1
  34   17   25 ar
  35   17   29 ar
  36   18   19 3
  37   20   21 ar
  38   20   41 1
  39   21   22 ar
  40   21   42 1
  41   22   23 ar
  42   22   43 1
  43   23   24 ar
  44   23   44 1
  45   24   45 1
  46   25   26 ar
  47   25   46 1
  48   26   27 ar
  49   26   47 1
  50   27   28 ar
  51   27   48 1
  52   28   29 ar
  53   28   49 1
  54   29   50 1

#	End of record

