#	Name: ASD01813662
#	Creating user name:	WinNT
#	Creation time:	15. 06. 2019 19:30

#	Modifying user name:	WinNT
#	Modification time:	15. 06. 2019 19:30

#	Program:	/corina/corina34_cracker 3.40 0067  02.08.2006

@<TRIPOS>MOLECULE
ASD01813662
  33   35    0    0    0
SMALL
NO_CHARGES


@<TRIPOS>ATOM
   1 C1             0.0979     1.4750     0.3506 C.ar    
   2 C2             0.0796     0.0887     0.3426 C.ar    
   3 C3             1.2498    -0.6315     0.2143 C.ar    
   4 C4             2.4678     0.0344     0.0904 C.ar    
   5 C5             2.4848     1.4396     0.0981 C.ar    
   6 C6             1.2925     2.1561     0.2292 C.ar    
   7 N7             3.6438    -0.6744    -0.0375 N.pl3   
   8 C8             4.8384    -0.0817    -0.1585 C.2     
   9 C9             4.9809     1.2912    -0.1636 C.2     
  10 C10            3.7792     2.1315    -0.0337 C.2     
  11 O11            3.8519     3.3480    -0.0333 O.2     
  12 C12            6.3100     1.9038    -0.2975 C.2     
  13 O13            6.4362     3.2459    -0.3013 O.3     
  14 O14            7.2955     1.2002    -0.4050 O.2     
  15 C15            3.5837    -2.1382    -0.0406 C.3     
  16 C16            3.4403    -2.6321    -1.4571 C.ar    
  17 C17            4.5533    -2.7799    -2.2626 C.ar    
  18 N18            4.4357    -3.2116    -3.5032 N.ar    
  19 C19            3.2631    -3.5178    -4.0226 C.ar    
  20 C20            2.1057    -3.3955    -3.2767 C.ar    
  21 C21            2.1902    -2.9493    -1.9669 C.ar    
  22 F22            1.2147    -1.9821     0.2092 F       
  23 F23            1.3085     3.5070     0.2363 F       
  24 H24           -0.8268     2.0244     0.4477 H       
  25 H25           -0.8609    -0.4335     0.4383 H       
  26 H26            5.7197    -0.6984    -0.2548 H       
  27 H27            7.3305     3.6025    -0.3918 H       
  28 H28            4.4990    -2.5404     0.3935 H       
  29 H29            2.7273    -2.4679     0.5476 H       
  30 H30            5.5308    -2.5389    -1.8717 H       
  31 H31            3.2061    -3.8679    -5.0427 H       
  32 H32            1.1481    -3.6475    -3.7078 H       
  33 H33            1.3029    -2.8440    -1.3604 H       
@<TRIPOS>BOND
   1    1    2 ar
   2    1    6 ar
   3    1   24 1
   4    2    3 ar
   5    2   25 1
   6    3   22 1
   7    3    4 ar
   8    4    5 ar
   9    4    7 1
  10    5    6 ar
  11    5   10 1
  12    6   23 1
  13    7    8 1
  14    7   15 1
  15    8    9 2
  16    8   26 1
  17    9   10 1
  18    9   12 1
  19   10   11 2
  20   12   13 1
  21   12   14 2
  22   13   27 1
  23   15   16 1
  24   15   28 1
  25   15   29 1
  26   16   17 ar
  27   16   21 ar
  28   17   18 ar
  29   17   30 1
  30   18   19 ar
  31   19   20 ar
  32   19   31 1
  33   20   21 ar
  34   20   32 1
  35   21   33 1

#	End of record

