#	Name: ASD03331007
#	Creating user name:	WinNT
#	Creation time:	15. 06. 2019 20:38

#	Modifying user name:	WinNT
#	Modification time:	15. 06. 2019 20:38

#	Program:	/corina/corina34_cracker 3.40 0067  02.08.2006

@<TRIPOS>MOLECULE
ASD03331007
  64   67    0    0    0
SMALL
NO_CHARGES


@<TRIPOS>ATOM
   1 N1            -0.8728     1.7440    -0.4478 N.pl3   
   2 C2            -0.6914     0.4230    -0.1799 C.2     
   3 C3             0.6246    -0.2339     0.1454 C.3     
   4 N4             1.3261     0.5682     1.1598 N.3     
   5 C5             2.1613     1.5974     0.5377 C.3     
   6 C6             1.5216     2.1167    -0.7468 C.3     
   7 C7             0.1740     2.7696    -0.4276 C.3     
   8 C8            -2.1969     1.9273    -0.7221 C.2     
   9 N9            -2.8114     0.7727    -0.6108 N.2     
  10 C10           -1.9102    -0.1764    -0.2743 C.2     
  11 C11           -2.1955    -1.6044    -0.0496 C.2     
  12 O12           -1.2949    -2.3646     0.2506 O.2     
  13 N13           -3.4546    -2.0682    -0.1769 N.am    
  14 C14            2.1214    -0.2878     2.0502 C.3     
  15 C15           -2.8333     3.2120    -1.0837 C.ar    
  16 C16           -2.5614     4.3618    -0.3409 C.ar    
  17 C17           -3.1575     5.5583    -0.6828 C.ar    
  18 C18           -4.0260     5.6205    -1.7629 C.ar    
  19 C19           -4.3004     4.4833    -2.5038 C.ar    
  20 C20           -3.7046     3.2806    -2.1739 C.ar    
  21 C21           -4.9808    -3.8774    -0.7122 C.2     
  22 C22           -3.7383    -3.4880     0.0465 C.3     
  23 C23           -3.9544    -3.7360     1.5407 C.3     
  24 C24           -4.3843    -5.1879     1.7597 C.3     
  25 C25           -2.6502    -3.4709     2.2955 C.3     
  26 C26           -5.0447    -2.7972     2.0610 C.3     
  27 N27           -5.1156    -5.1318    -1.1862 N.am    
  28 C28           -6.1686    -5.8983    -1.8693 C.3     
  29 C29           -5.5628    -7.1702    -1.2598 C.3     
  30 C30           -4.2721    -6.3346    -1.2537 C.3     
  31 F31           -6.0525    -7.4863     0.0120 F       
  32 F32           -5.5305    -8.2644    -2.1308 F       
  33 O33           -5.8595    -3.0619    -0.8963 O.2     
  34 Cl34          -2.8203     6.9889     0.2410 Cl      
  35 F35           -4.6066     6.7949    -2.0928 F       
  36 F36           -3.9684     2.1727    -2.9005 F       
  37 H37            0.4453    -1.2364     0.5337 H       
  38 H38            1.2341    -0.2949    -0.7563 H       
  39 H39            2.2879     2.4256     1.2349 H       
  40 H40            3.1382     1.1735     0.3052 H       
  41 H41            2.1805     2.8523    -1.2081 H       
  42 H42            1.3678     1.2866    -1.4363 H       
  43 H43           -0.0479     3.5315    -1.1749 H       
  44 H44            0.2161     3.2280     0.5604 H       
  45 H45           -4.1729    -1.4619    -0.4164 H       
  46 H46            2.8128    -0.8861     1.4569 H       
  47 H47            2.6842     0.3349     2.7456 H       
  48 H48            1.4572    -0.9473     2.6088 H       
  49 H49           -1.8858     4.3151     0.5004 H       
  50 H50           -4.9778     4.5371    -3.3432 H       
  51 H51           -2.8967    -4.0860    -0.3031 H       
  52 H52           -3.5954    -5.8564     1.4151 H       
  53 H53           -4.5659    -5.3569     2.8212 H       
  54 H54           -5.2981    -5.3848     1.1990 H       
  55 H55           -2.3439    -2.4365     2.1394 H       
  56 H56           -2.8042    -3.6476     3.3600 H       
  57 H57           -1.8735    -4.1397     1.9248 H       
  58 H58           -5.9738    -2.9860     1.5233 H       
  59 H59           -5.1986    -2.9738     3.1256 H       
  60 H60           -4.7384    -1.7628     1.9050 H       
  61 H61           -7.1719    -5.6776    -1.5048 H       
  62 H62           -6.0967    -5.8611    -2.9563 H       
  63 H63           -3.7003    -6.4125    -2.1784 H       
  64 H64           -3.6596    -6.4858    -0.3648 H       
@<TRIPOS>BOND
   1    1    2 1
   2    1    7 1
   3    1    8 1
   4    2    3 1
   5    2   10 2
   6    3    4 1
   7    3   37 1
   8    3   38 1
   9    4    5 1
  10    4   14 1
  11    5    6 1
  12    5   39 1
  13    5   40 1
  14    6    7 1
  15    6   41 1
  16    6   42 1
  17    7   43 1
  18    7   44 1
  19    8    9 2
  20    8   15 1
  21    9   10 1
  22   10   11 1
  23   11   12 2
  24   11   13 am
  25   13   22 1
  26   13   45 1
  27   14   46 1
  28   14   47 1
  29   14   48 1
  30   15   16 ar
  31   15   20 ar
  32   16   17 ar
  33   16   49 1
  34   17   18 ar
  35   17   34 1
  36   18   19 ar
  37   18   35 1
  38   19   20 ar
  39   19   50 1
  40   20   36 1
  41   21   27 am
  42   21   33 2
  43   21   22 1
  44   22   23 1
  45   22   51 1
  46   23   24 1
  47   23   25 1
  48   23   26 1
  49   24   52 1
  50   24   53 1
  51   24   54 1
  52   25   55 1
  53   25   56 1
  54   25   57 1
  55   26   58 1
  56   26   59 1
  57   26   60 1
  58   27   28 1
  59   27   30 1
  60   28   29 1
  61   28   61 1
  62   28   62 1
  63   29   30 1
  64   29   31 1
  65   29   32 1
  66   30   63 1
  67   30   64 1

#	End of record

