#	Name: ASD01180343
#	Creating user name:	WinNT
#	Creation time:	15. 06. 2019 19:07

#	Modifying user name:	WinNT
#	Modification time:	15. 06. 2019 19:07

#	Program:	/corina/corina34_cracker 3.40 0067  02.08.2006

@<TRIPOS>MOLECULE
ASD01180343
  64   66    0    0    0
SMALL
NO_CHARGES


@<TRIPOS>ATOM
   1 C1             0.9388     1.5143    -0.0731 C.2     
   2 C2             0.8357     0.0109    -0.0661 C.3     
   3 C3             2.2371    -0.5968    -0.1546 C.3     
   4 O4             2.0219     2.0454    -0.1418 O.2     
   5 O5            -0.1731     2.2636    -0.0085 O.3     
   6 C6             3.2530    -2.8106    -0.2182 C.2     
   7 C7             3.1519    -4.2855    -0.2114 C.ar    
   8 C8             4.3038    -5.0784    -0.2840 C.ar    
   9 C9             4.1547    -6.4539    -0.2737 C.ar    
  10 C10            2.8847    -6.9967    -0.1926 C.ar    
  11 N11            1.8171    -6.2247    -0.1253 N.ar    
  12 C12            1.9076    -4.9109    -0.1265 C.ar    
  13 O13            4.3427    -2.2764    -0.2874 O.2     
  14 N14            2.1369    -2.0583    -0.1478 N.am    
  15 C15            2.7182    -8.4945    -0.1816 C.3     
  16 C16            1.9164    -8.9094     1.0536 C.3     
  17 C17            2.7248    -8.5980     2.3147 C.3     
  18 C18            1.8720    -8.8876     3.5516 C.3     
  19 N19            2.0057    -8.9155    -1.3904 N.pl3   
  20 C20            2.6037   -12.7381    -2.9358 C.ar    
  21 C21            1.8303   -11.8147    -3.6375 C.ar    
  22 C22            1.6335   -10.5504    -3.1244 C.ar    
  23 C23            2.2058   -10.1961    -1.9080 C.ar    
  24 C24            2.9775   -11.1155    -1.2066 C.ar    
  25 C25            3.1767   -12.3808    -1.7162 C.ar    
  26 C26            2.8118   -14.1011    -3.4833 C.ar    
  27 C27            3.5847   -15.0255    -2.7831 C.ar    
  28 C28            3.7749   -16.2921    -3.2972 C.ar    
  29 C29            3.2001   -16.6447    -4.5049 C.ar    
  30 C30            2.4324   -15.7310    -5.2044 C.ar    
  31 C31            2.2303   -14.4636    -4.6968 C.ar    
  32 C32            3.4115   -18.0293    -5.0611 C.3     
  33 F33            2.3997   -18.8773    -4.5980 F       
  34 F34            3.3760   -17.9809    -6.4588 F       
  35 F35            4.6549   -18.5151    -4.6427 F       
  36 C36            3.9801    -9.4721     2.3447 C.3     
  37 H37            0.3555    -0.3161     0.8562 H       
  38 H38            0.2431    -0.3167    -0.9202 H       
  39 H39            2.7173    -0.2698    -1.0769 H       
  40 H40            2.8298    -0.2692     0.6995 H       
  41 H41           -0.0567     3.2235    -0.0159 H       
  42 H42            5.2833    -4.6279    -0.3469 H       
  43 H43            5.0206    -7.0970    -0.3286 H       
  44 H44            1.0107    -4.3124    -0.0657 H       
  45 H45            1.2674    -2.4846    -0.0926 H       
  46 H46            3.6992    -8.9689    -0.1542 H       
  47 H47            0.9767    -8.3577     1.0790 H       
  48 H48            1.7089    -9.9786     1.0099 H       
  49 H49            3.0139    -7.5470     2.3107 H       
  50 H50            1.5829    -9.9385     3.5557 H       
  51 H51            2.4480    -8.6657     4.4501 H       
  52 H52            0.9777    -8.2648     3.5303 H       
  53 H53            1.3949    -8.3043    -1.8311 H       
  54 H54            1.3858   -12.0894    -4.5827 H       
  55 H55            1.0347    -9.8346    -3.6678 H       
  56 H56            3.4215   -10.8382    -0.2619 H       
  57 H57            3.7759   -13.0949    -1.1709 H       
  58 H58            4.0342   -14.7512    -1.8402 H       
  59 H59            4.3740   -17.0092    -2.7556 H       
  60 H60            1.9865   -16.0114    -6.1472 H       
  61 H61            1.6267   -13.7526    -5.2414 H       
  62 H62            4.5046    -9.3225     3.2884 H       
  63 H63            3.6955   -10.5200     2.2492 H       
  64 H64            4.6345    -9.1966     1.5177 H       
@<TRIPOS>BOND
   1    1    2 1
   2    1    4 2
   3    1    5 1
   4    2    3 1
   5    2   37 1
   6    2   38 1
   7    3   14 1
   8    3   39 1
   9    3   40 1
  10    5   41 1
  11    6    7 1
  12    6   13 2
  13    6   14 am
  14    7    8 ar
  15    7   12 ar
  16    8    9 ar
  17    8   42 1
  18    9   10 ar
  19    9   43 1
  20   10   11 ar
  21   10   15 1
  22   11   12 ar
  23   12   44 1
  24   14   45 1
  25   15   16 1
  26   15   19 1
  27   15   46 1
  28   16   17 1
  29   16   47 1
  30   16   48 1
  31   17   18 1
  32   17   36 1
  33   17   49 1
  34   18   50 1
  35   18   51 1
  36   18   52 1
  37   19   23 1
  38   19   53 1
  39   20   21 ar
  40   20   25 ar
  41   20   26 1
  42   21   22 ar
  43   21   54 1
  44   22   23 ar
  45   22   55 1
  46   23   24 ar
  47   24   25 ar
  48   24   56 1
  49   25   57 1
  50   26   27 ar
  51   26   31 ar
  52   27   28 ar
  53   27   58 1
  54   28   29 ar
  55   28   59 1
  56   29   30 ar
  57   29   32 1
  58   30   31 ar
  59   30   60 1
  60   31   61 1
  61   32   33 1
  62   32   34 1
  63   32   35 1
  64   36   62 1
  65   36   63 1
  66   36   64 1

#	End of record

