#	Name: ASD02408397
#	Creating user name:	WinNT
#	Creation time:	15. 06. 2019 20:21

#	Modifying user name:	WinNT
#	Modification time:	15. 06. 2019 20:21

#	Program:	/corina/corina34_cracker 3.40 0067  02.08.2006

@<TRIPOS>MOLECULE
ASD02408397
  31   32    0    0    0
SMALL
NO_CHARGES


@<TRIPOS>ATOM
   1 C1            -0.0417     1.1439    -0.5227 C.2     
   2 C2            -0.0051     0.3239     0.6300 C.2     
   3 C3             1.2795     1.3852    -0.8925 C.2     
   4 N4             2.0650     0.7396    -0.0022 N.pl3   
   5 N5             1.2427     0.0927     0.9266 N.2     
   6 C6             3.4662     0.7211    -0.0084 C.ar    
   7 C7             4.1770     1.9086    -0.1174 C.ar    
   8 C8             5.5582     1.8872    -0.1227 C.ar    
   9 C9             6.2327     0.6846    -0.0200 C.ar    
  10 C10            5.5274    -0.5001     0.0882 C.ar    
  11 C11            4.1466    -0.4846     0.1003 C.ar    
  12 N12            1.7059     2.1409    -1.9654 N.pl3   
  13 C13           -1.2435     1.6405    -1.2031 C.2     
  14 N14           -2.4652     1.3198    -0.7329 N.am    
  15 O15           -1.1370     2.3418    -2.1919 O.2     
  16 C16            3.3788    -1.7760     0.2188 C.3     
  17 C17            2.8923    -2.2089    -1.1656 C.3     
  18 H18           -0.8633    -0.0463     1.1710 H       
  19 H19            3.6507     2.8482    -0.1983 H       
  20 H20            6.1117     2.8106    -0.2074 H       
  21 H21            7.3126     0.6704    -0.0248 H       
  22 H22            6.0571    -1.4379     0.1675 H       
  23 H23            1.0585     2.5115    -2.5854 H       
  24 H24            2.6530     2.3016    -2.0996 H       
  25 H25           -2.5502     0.7608     0.0552 H       
  26 H26           -3.2595     1.6481    -1.1826 H       
  27 H27            4.0274    -2.5475     0.6337 H       
  28 H28            2.5216    -1.6300     0.8760 H       
  29 H29            2.2437    -1.4373    -1.5805 H       
  30 H30            3.7495    -2.3549    -1.8228 H       
  31 H31            2.3369    -3.1429    -1.0799 H       
@<TRIPOS>BOND
   1    1    2 1
   2    1    3 2
   3    1   13 1
   4    2    5 2
   5    2   18 1
   6    3    4 1
   7    3   12 1
   8    4    5 1
   9    4    6 1
  10    6    7 ar
  11    6   11 ar
  12    7    8 ar
  13    7   19 1
  14    8    9 ar
  15    8   20 1
  16    9   10 ar
  17    9   21 1
  18   10   11 ar
  19   10   22 1
  20   11   16 1
  21   12   23 1
  22   12   24 1
  23   13   14 am
  24   13   15 2
  25   14   25 1
  26   14   26 1
  27   16   17 1
  28   16   27 1
  29   16   28 1
  30   17   29 1
  31   17   30 1
  32   17   31 1

#	End of record

