#	Name: ASD05430295
#	Creating user name:	WinNT
#	Creation time:	15. 06. 2019 21:00

#	Modifying user name:	WinNT
#	Modification time:	15. 06. 2019 21:00

#	Program:	/corina/corina34_cracker 3.40 0067  02.08.2006

@<TRIPOS>MOLECULE
ASD05430295
  74   81    0    0    0
SMALL
NO_CHARGES


@<TRIPOS>ATOM
   1 C1            -0.0143     1.4420    -0.1935 C.ar    
   2 C2            -0.0253     0.2013    -0.8344 C.ar    
   3 C3             1.1563    -0.3501    -1.3054 C.ar    
   4 C4             2.3571     0.3148    -1.1493 C.ar    
   5 C5             2.3956     1.5552    -0.5127 C.ar    
   6 C6             1.1976     2.1254    -0.0295 C.ar    
   7 C7             4.8119     0.0598     0.0707 C.3     
   8 C8             4.8087     1.5647    -0.1515 C.2     
   9 C9             3.6721     2.2624    -0.3460 C.2     
  10 C10            5.8169    -0.2592     1.1776 C.3     
  11 C11            7.2490     0.1654     0.8529 C.3     
  12 N12            7.2455     1.5605     0.4186 N.pl3   
  13 C13            6.1404     2.2088    -0.1388 C.2     
  14 C14            8.3185     2.5546     0.4778 C.3     
  15 O15            7.8779     3.5706    -0.4474 O.3     
  16 N16            6.4825     3.3598    -0.6142 N.2     
  17 C17            8.4436     3.1202     1.8691 C.ar    
  18 C18            9.6451     1.9455     0.0196 C.3     
  19 N19           -1.2332    -0.4879    -1.0015 N.pl3   
  20 C20           -1.7077    -1.0299    -2.1680 C.2     
  21 C21           -2.8951    -1.5961    -1.8803 C.2     
  22 N22           -3.1438    -1.4080    -0.5757 N.2     
  23 C23           -2.1531    -0.7506    -0.0370 C.2     
  24 C24           -3.7903    -2.3162    -2.8556 C.3     
  25 N25           -0.4002     3.3887     0.8730 N.2     
  26 O26           -0.9804     2.2104     0.3500 O.3     
  27 C27            0.8820     3.3721     0.6667 C.2     
  28 C28            5.3500     0.1818     2.5727 C.3     
  29 O29            5.8387    -1.1019     3.0139 O.3     
  30 C30            5.7096    -1.6970     1.7060 C.3     
  31 C31            8.5790     2.2695     2.9462 C.ar    
  32 C32            8.6951     2.7694     4.2299 C.ar    
  33 C33            8.6631     4.1414     4.4363 C.ar    
  34 C34            8.5163     4.9853     3.3611 C.ar    
  35 C35            8.4277     4.5005     2.0606 C.ar    
  36 Si36           8.4054     6.8454     3.6010 Si      
  37 C37            8.4999     7.5716     1.8686 C.3     
  38 C38            7.7203     6.5818     0.9748 C.3     
  39 O39            8.3557     5.3142     0.9880 O.3     
  40 C40            6.7864     7.2980     4.4040 C.3     
  41 C41            9.8331     7.4500     4.6340 C.3     
  42 F42            8.7749     4.6441     5.6853 F       
  43 H43            1.1378    -1.3103    -1.7994 H       
  44 H44            3.2695    -0.1277    -1.5211 H       
  45 H45            3.8172    -0.2694     0.3714 H       
  46 H46            5.1048    -0.4469    -0.8488 H       
  47 H47            3.6999     3.3415    -0.3792 H       
  48 H48            7.8705     0.0620     1.7424 H       
  49 H49            7.6439    -0.4638     0.0553 H       
  50 H50            9.5475     1.5929    -1.0072 H       
  51 H51           10.4290     2.7010     0.0713 H       
  52 H52            9.9039     1.1085     0.6681 H       
  53 H53           -1.2225    -1.0067    -3.1326 H       
  54 H54           -2.0806    -0.4579     1.0000 H       
  55 H55           -3.5313    -3.3748    -2.8731 H       
  56 H56           -4.8296    -2.2013    -2.5479 H       
  57 H57           -3.6573    -1.8931    -3.8514 H       
  58 H58            1.5856     4.1392     0.9546 H       
  59 H59            5.9052     1.0282     2.9769 H       
  60 H60            4.2696     0.2967     2.6607 H       
  61 H61            4.7403    -2.1621     1.5264 H       
  62 H62            6.5488    -2.3338     1.4260 H       
  63 H63            8.5942     1.2017     2.7852 H       
  64 H64            8.8096     2.0964     5.0669 H       
  65 H65            8.0296     8.5546     1.8442 H       
  66 H66            9.5378     7.6389     1.5427 H       
  67 H67            6.7012     6.4829     1.3485 H       
  68 H68            7.6935     6.9613    -0.0467 H       
  69 H69            6.7133     6.8089     5.3753 H       
  70 H70            6.7362     8.3788     4.5367 H       
  71 H71            5.9623     6.9712     3.7697 H       
  72 H72           10.7710     7.2111     4.1327 H       
  73 H73            9.7555     8.5294     4.7646 H       
  74 H74            9.8079     6.9633     5.6089 H       
@<TRIPOS>BOND
   1    1    2 ar
   2    1    6 ar
   3    1   26 1
   4    2    3 ar
   5    2   19 1
   6    3    4 ar
   7    3   43 1
   8    4    5 ar
   9    4   44 1
  10    5    6 ar
  11    5    9 1
  12    6   27 1
  13    7    8 1
  14    7   10 1
  15    7   45 1
  16    7   46 1
  17    8    9 2
  18    8   13 1
  19    9   47 1
  20   10   11 1
  21   10   28 1
  22   10   30 1
  23   11   12 1
  24   11   48 1
  25   11   49 1
  26   12   13 1
  27   12   14 1
  28   13   16 2
  29   14   15 1
  30   14   17 1
  31   14   18 1
  32   15   16 1
  33   17   31 ar
  34   17   35 ar
  35   18   50 1
  36   18   51 1
  37   18   52 1
  38   19   20 1
  39   19   23 1
  40   20   21 2
  41   20   53 1
  42   21   22 1
  43   21   24 1
  44   22   23 2
  45   23   54 1
  46   24   55 1
  47   24   56 1
  48   24   57 1
  49   25   26 1
  50   25   27 2
  51   27   58 1
  52   28   29 1
  53   28   59 1
  54   28   60 1
  55   29   30 1
  56   30   61 1
  57   30   62 1
  58   31   32 ar
  59   31   63 1
  60   32   33 ar
  61   32   64 1
  62   33   34 ar
  63   33   42 1
  64   34   35 ar
  65   34   36 1
  66   35   39 1
  67   36   37 1
  68   36   40 1
  69   36   41 1
  70   37   38 1
  71   37   65 1
  72   37   66 1
  73   38   39 1
  74   38   67 1
  75   38   68 1
  76   40   69 1
  77   40   70 1
  78   40   71 1
  79   41   72 1
  80   41   73 1
  81   41   74 1

#	End of record

