#	Name: ASD08150445
#	Creating user name:	WinNT
#	Creation time:	15. 06. 2019 21:16

#	Modifying user name:	WinNT
#	Modification time:	15. 06. 2019 21:16

#	Program:	/corina/corina34_cracker 3.40 0067  02.08.2006

@<TRIPOS>MOLECULE
ASD08150445
  29   31    0    0    0
SMALL
NO_CHARGES


@<TRIPOS>ATOM
   1 C1            -0.0157     1.3062     0.0092 C.ar    
   2 N2             0.0021    -0.0041     0.0020 N.ar    
   3 C3             1.1698    -0.6876    -0.0128 C.ar    
   4 C4             2.3561     0.0497    -0.0203 C.ar    
   5 C5             2.2831     1.4518    -0.0129 C.ar    
   6 N6             1.0893     2.0323     0.0026 N.ar    
   7 C7             1.3976    -2.0724    -0.0220 C.2     
   8 C8             2.6682    -2.4468    -0.0359 C.2     
   9 S9             3.7287    -1.0476    -0.0388 S.3     
  10 O10            5.2455     4.0942    -1.0669 O.3     
  11 C11            4.4201     4.4579     0.0429 C.3     
  12 C12            3.1194     3.6521    -0.0098 C.3     
  13 N13            3.4381     2.2170    -0.0195 N.3     
  14 C14            4.2870     1.8797    -1.1715 C.3     
  15 C15            5.5760     2.7033    -1.1072 C.3     
  16 C16            0.2683    -3.0702    -0.0160 C.3     
  17 I17            3.3228    -4.4369    -0.0521 I       
  18 Cl18          -1.5491     2.1201     0.0208 Cl      
  19 H19            4.9450     4.2414     0.9733 H       
  20 H20            4.1910     5.5224    -0.0074 H       
  21 H21            2.5119     3.8841     0.8650 H       
  22 H22            2.5686     3.9088    -0.9147 H       
  23 H23            4.5318     0.8179    -1.1447 H       
  24 H24            3.7548     2.1081    -2.0949 H       
  25 H25            6.1829     2.4988    -1.9892 H       
  26 H26            6.1345     2.4358    -0.2102 H       
  27 H27           -0.0140    -3.3056    -1.0421 H       
  28 H28            0.5903    -3.9803     0.4902 H       
  29 H29           -0.5882    -2.6464     0.5084 H       
@<TRIPOS>BOND
   1    1    2 ar
   2    1    6 ar
   3    1   18 1
   4    2    3 ar
   5    3    4 ar
   6    3    7 1
   7    4    5 ar
   8    4    9 1
   9    5    6 ar
  10    5   13 1
  11    7    8 2
  12    7   16 1
  13    8    9 1
  14    8   17 1
  15   10   11 1
  16   10   15 1
  17   11   12 1
  18   11   19 1
  19   11   20 1
  20   12   13 1
  21   12   21 1
  22   12   22 1
  23   13   14 1
  24   14   15 1
  25   14   23 1
  26   14   24 1
  27   15   25 1
  28   15   26 1
  29   16   27 1
  30   16   28 1
  31   16   29 1

#	End of record

