#	Name: ASD01870094
#	Creating user name:	WinNT
#	Creation time:	15. 06. 2019 19:38

#	Modifying user name:	WinNT
#	Modification time:	15. 06. 2019 19:38

#	Program:	/corina/corina34_cracker 3.40 0067  02.08.2006

@<TRIPOS>MOLECULE
ASD01870094
  47   50    0    0    0
SMALL
NO_CHARGES


@<TRIPOS>ATOM
   1 C1             1.1913     1.8013     0.1416 C.3     
   2 O2             0.9399     0.3953     0.1883 O.3     
   3 C3             1.2911    -0.2980    -1.0109 C.3     
   4 C4             0.3748    -1.5108    -1.1858 C.3     
   5 C5             0.7508    -2.2531    -2.4697 C.3     
   6 C6             2.2048    -2.7210    -2.3811 C.3     
   7 C7             3.1211    -1.5083    -2.2062 C.3     
   8 C8             2.7451    -0.7659    -0.9223 C.3     
   9 C9             2.3642    -3.6452    -1.2014 C.2     
  10 O10            1.5104    -3.6828    -0.3409 O.2     
  11 C11            3.5542    -4.5009    -1.0938 C.ar    
  12 C12            4.5437    -4.4548    -2.0949 C.ar    
  13 C13            5.6500    -5.2359    -2.0166 C.ar    
  14 C14            5.8242    -6.1090    -0.9259 C.ar    
  15 C15            4.8347    -6.1629     0.0884 C.ar    
  16 C16            3.7008    -5.3483    -0.0014 C.ar    
  17 C17            5.0214    -7.0402     1.1762 C.ar    
  18 C18            6.1510    -7.8063     1.2105 C.ar    
  19 C19            7.0897    -7.7136     0.1778 C.ar    
  20 N20            6.9059    -6.8849    -0.8365 N.ar    
  21 O21            8.2144    -8.4730     0.1779 O.3     
  22 C22            8.6174    -9.0703     1.4102 C.3     
  23 C23            7.4078    -9.7889     2.0211 C.3     
  24 C24            6.3549    -8.7368     2.3789 C.3     
  25 H25            2.2534     1.9749    -0.0310 H       
  26 H26            0.6139     2.2469    -0.6684 H       
  27 H27            0.8983     2.2544     1.0887 H       
  28 H28            1.1759     0.3704    -1.8641 H       
  29 H29            0.4901    -2.1792    -0.3325 H       
  30 H30           -0.6610    -1.1775    -1.2489 H       
  31 H31            0.0981    -3.1171    -2.5943 H       
  32 H32            0.6356    -1.5847    -3.3229 H       
  33 H33            2.4727    -3.2499    -3.2958 H       
  34 H34            4.1570    -1.8416    -2.1431 H       
  35 H35            3.0059    -0.8398    -3.0594 H       
  36 H36            3.3979     0.0981    -0.7977 H       
  37 H37            2.8603    -1.4344    -0.0691 H       
  38 H38            4.4200    -3.7890    -2.9361 H       
  39 H39            6.3989    -5.1883    -2.7932 H       
  40 H40            2.9425    -5.3832     0.7668 H       
  41 H41            4.2870    -7.1046     1.9655 H       
  42 H42            9.4154    -9.7893     1.2249 H       
  43 H43            8.9682    -8.2975     2.0942 H       
  44 H44            6.9941   -10.4917     1.2979 H       
  45 H45            7.7136   -10.3234     2.9204 H       
  46 H46            6.6924    -8.1652     3.2434 H       
  47 H47            5.4135    -9.2320     2.6169 H       
@<TRIPOS>BOND
   1    1    2 1
   2    1   25 1
   3    1   26 1
   4    1   27 1
   5    2    3 1
   6    3    4 1
   7    3    8 1
   8    3   28 1
   9    4    5 1
  10    4   29 1
  11    4   30 1
  12    5    6 1
  13    5   31 1
  14    5   32 1
  15    6    7 1
  16    6    9 1
  17    6   33 1
  18    7    8 1
  19    7   34 1
  20    7   35 1
  21    8   36 1
  22    8   37 1
  23    9   10 2
  24    9   11 1
  25   11   12 ar
  26   11   16 ar
  27   12   13 ar
  28   12   38 1
  29   13   14 ar
  30   13   39 1
  31   14   15 ar
  32   14   20 ar
  33   15   16 ar
  34   15   17 ar
  35   16   40 1
  36   17   18 ar
  37   17   41 1
  38   18   19 ar
  39   18   24 1
  40   19   20 ar
  41   19   21 1
  42   21   22 1
  43   22   23 1
  44   22   42 1
  45   22   43 1
  46   23   24 1
  47   23   44 1
  48   23   45 1
  49   24   46 1
  50   24   47 1

#	End of record

