#	Name: ASD09080029
#	Creating user name:	WinNT
#	Creation time:	15. 06. 2019 21:20

#	Modifying user name:	WinNT
#	Modification time:	15. 06. 2019 21:20

#	Program:	/corina/corina34_cracker 3.40 0067  02.08.2006

@<TRIPOS>MOLECULE
ASD09080029
  52   53    0    0    0
SMALL
NO_CHARGES


@<TRIPOS>ATOM
   1 C1            -0.0167     1.3772     0.0096 C.ar    
   2 C2             0.0021    -0.0041     0.0020 C.ar    
   3 C3             1.2087    -0.6820    -0.0127 C.ar    
   4 C4             2.4019     0.0195    -0.0203 C.ar    
   5 C5             2.3936     1.4009    -0.0128 C.ar    
   6 C6             1.1817     2.0879     0.0020 C.ar    
   7 Cl7           -1.4902    -0.8910     0.0115 Cl      
   8 Cl8            3.9112    -0.8380    -0.0387 Cl      
   9 C9             1.1672     3.5718     0.0096 C.ar    
  10 C10           -0.0448     4.2591     0.0244 C.ar    
  11 C11            2.3655     4.2827     0.0078 C.ar    
  12 C12           -0.0524     5.6392     0.0319 C.ar    
  13 C13            1.1401     6.3400     0.0248 C.ar    
  14 C14            2.3461     5.6628     0.0154 C.ar    
  15 C15            1.1254     7.8469     0.0325 C.3     
  16 C16            1.1333     8.3496     1.4776 C.3     
  17 N17            2.3947     7.9710     2.1194 N.am    
  18 C18            0.9948     9.8502     1.4882 C.2     
  19 C19            3.5653     8.4096     1.6156 C.2     
  20 C20            4.8628     8.0202     2.2758 C.3     
  21 O21            3.5745     9.1177     0.6310 O.2     
  22 O22            5.9544     8.6044     1.5623 O.3     
  23 C23            7.2380     8.2955     2.1091 C.3     
  24 C24            0.0194    10.4235     2.1889 C.2     
  25 C25           -0.1156    11.8867     2.1993 C.2     
  26 O26            0.6635    12.5734     1.5680 O.2     
  27 O27           -1.1037    12.4674     2.9090 O.3     
  28 C28           -2.3520    14.3898     3.7312 C.3     
  29 C29           -1.1766    13.9171     2.8733 C.3     
  30 H30           -0.9587     1.9054     0.0170 H       
  31 H31            1.2193    -1.7620    -0.0179 H       
  32 H32            3.3252     1.9474    -0.0180 H       
  33 H33           -0.9765     3.7129     0.0296 H       
  34 H34            3.3077     3.7549     0.0009 H       
  35 H35           -0.9912     6.1730     0.0430 H       
  36 H36            3.2743     6.2149     0.0099 H       
  37 H37            2.0071     8.2216    -0.4873 H       
  38 H38            0.2273     8.2041    -0.4715 H       
  39 H39            0.3007     7.9040     2.0218 H       
  40 H40            2.3873     7.4047     2.9069 H       
  41 H41            1.6872    10.4604     0.9272 H       
  42 H42            4.8685     8.3783     3.3053 H       
  43 H43            4.9630     6.9348     2.2681 H       
  44 H44            7.3875     7.2159     2.0980 H       
  45 H45            8.0127     8.7757     1.5114 H       
  46 H46            7.2930     8.6593     3.1352 H       
  47 H47           -0.6730     9.8133     2.7499 H       
  48 H48           -2.4067    15.4781     3.7045 H       
  49 H49           -3.2789    13.9697     3.3409 H       
  50 H50           -2.2076    14.0585     4.7596 H       
  51 H51           -0.2497    14.3372     3.2637 H       
  52 H52           -1.3210    14.2484     1.8450 H       
@<TRIPOS>BOND
   1    1    2 ar
   2    1    6 ar
   3    1   30 1
   4    2    3 ar
   5    2    7 1
   6    3    4 ar
   7    3   31 1
   8    4    5 ar
   9    4    8 1
  10    5    6 ar
  11    5   32 1
  12    6    9 1
  13    9   10 ar
  14    9   11 ar
  15   10   12 ar
  16   10   33 1
  17   11   14 ar
  18   11   34 1
  19   12   13 ar
  20   12   35 1
  21   13   14 ar
  22   13   15 1
  23   14   36 1
  24   15   16 1
  25   15   37 1
  26   15   38 1
  27   16   17 1
  28   16   18 1
  29   16   39 1
  30   17   19 am
  31   17   40 1
  32   18   24 2
  33   18   41 1
  34   19   20 1
  35   19   21 2
  36   20   22 1
  37   20   42 1
  38   20   43 1
  39   22   23 1
  40   23   44 1
  41   23   45 1
  42   23   46 1
  43   24   25 1
  44   24   47 1
  45   25   26 2
  46   25   27 1
  47   27   29 1
  48   28   29 1
  49   28   48 1
  50   28   49 1
  51   28   50 1
  52   29   51 1
  53   29   52 1

#	End of record

