#	Name: ASD01913305
#	Creating user name:	WinNT
#	Creation time:	15. 06. 2019 20:01

#	Modifying user name:	WinNT
#	Modification time:	15. 06. 2019 20:01

#	Program:	/corina/corina34_cracker 3.40 0067  02.08.2006

@<TRIPOS>MOLECULE
ASD01913305
  38   40    0    0    0
SMALL
NO_CHARGES


@<TRIPOS>ATOM
   1 C1            -0.0169     1.3971     0.0097 C.ar    
   2 C2             0.0021    -0.0041     0.0020 C.ar    
   3 C3             1.2454    -0.6502    -0.0133 C.ar    
   4 N4             2.3460     0.0795    -0.0199 N.ar    
   5 C5             2.2851     1.4038    -0.0122 C.ar    
   6 N6             1.1293     2.0528     0.0023 N.ar    
   7 N7             3.4624     2.1297    -0.0191 N.pl3   
   8 C8            -1.2168    -0.7557     0.0101 C.1     
   9 C9            -2.2161    -1.3719     0.0167 C.1     
  10 C10           -3.4349    -2.1235     0.0248 C.ar    
  11 C11           -3.3984    -3.5204     0.0169 C.ar    
  12 C12           -4.5764    -4.2376     0.0252 C.ar    
  13 C13           -5.7924    -3.5773     0.0409 C.ar    
  14 C14           -5.8364    -2.1942     0.0487 C.ar    
  15 C15           -4.6665    -1.4637     0.0464 C.ar    
  16 C16            3.4200     3.5941    -0.0108 C.3     
  17 C17            4.8471     4.1457    -0.0209 C.3     
  18 C18            4.9193     5.6843    -0.0133 C.3     
  19 O19            5.9697     5.5174     0.9601 O.3     
  20 C20            5.4948     4.2207     1.3746 C.3     
  21 C21            5.7336     3.4908    -1.0821 C.3     
  22 H22           -0.9548     1.9326     0.0171 H       
  23 H23            1.3027    -1.7287    -0.0193 H       
  24 H24            4.3161     1.6693    -0.0294 H       
  25 H25           -2.4501    -4.0371     0.0040 H       
  26 H26           -4.5498    -5.3173     0.0192 H       
  27 H27           -6.7117    -4.1441     0.0466 H       
  28 H28           -6.7890    -1.6856     0.0606 H       
  29 H29           -4.7023    -0.3843     0.0525 H       
  30 H30            2.8877     3.9472    -0.8941 H       
  31 H31            2.9041     3.9376     0.8858 H       
  32 H32            5.2563     6.1146    -0.9563 H       
  33 H33            4.0247     6.1658     0.3815 H       
  34 H34            4.7759     4.2553     2.1932 H       
  35 H35            6.2883     3.4902     1.5323 H       
  36 H36            5.3054     3.6625    -2.0697 H       
  37 H37            6.7327     3.9244    -1.0389 H       
  38 H38            5.7943     2.4189    -0.8938 H       
@<TRIPOS>BOND
   1    1    2 ar
   2    1    6 ar
   3    1   22 1
   4    2    3 ar
   5    2    8 1
   6    3    4 ar
   7    3   23 1
   8    4    5 ar
   9    5    6 ar
  10    5    7 1
  11    7   16 1
  12    7   24 1
  13    8    9 3
  14    9   10 1
  15   10   11 ar
  16   10   15 ar
  17   11   12 ar
  18   11   25 1
  19   12   13 ar
  20   12   26 1
  21   13   14 ar
  22   13   27 1
  23   14   15 ar
  24   14   28 1
  25   15   29 1
  26   16   17 1
  27   16   30 1
  28   16   31 1
  29   17   18 1
  30   17   21 1
  31   17   20 1
  32   18   19 1
  33   18   32 1
  34   18   33 1
  35   19   20 1
  36   20   34 1
  37   20   35 1
  38   21   36 1
  39   21   37 1
  40   21   38 1

#	End of record

