#	Name: ASD01180069
#	Creating user name:	WinNT
#	Creation time:	15. 06. 2019 19:06

#	Modifying user name:	WinNT
#	Modification time:	15. 06. 2019 19:06

#	Program:	/corina/corina34_cracker 3.40 0067  02.08.2006

@<TRIPOS>MOLECULE
ASD01180069
  36   37    0    0    0
SMALL
NO_CHARGES


@<TRIPOS>ATOM
   1 C1            -0.0170     1.4010     0.0097 C.ar    
   2 C2             0.0021    -0.0041     0.0020 C.ar    
   3 C3             1.1935    -0.6638    -0.0128 C.ar    
   4 C4             2.4007     0.0368    -0.0205 C.ar    
   5 C5             2.4189     1.3987    -0.0130 C.ar    
   6 C6             1.2085     2.1119     0.0019 C.ar    
   7 N7             1.1978     3.4509     0.0086 N.ar    
   8 C8             0.0461     4.0945     0.0226 C.ar    
   9 C9            -1.1678     3.3848     0.0305 C.ar    
  10 N10           -1.1747     2.0738     0.0189 N.ar    
  11 N11            0.0326     5.4814     0.0301 N.pl3   
  12 S12           -2.6937     4.2657     0.0492 S.o     
  13 C13            1.2941     6.2263     0.0224 C.3     
  14 C14            2.0884     5.8711    -1.2361 C.3     
  15 C15            0.9999     7.7277     0.0331 C.3     
  16 C16            2.1114     5.8579     1.2623 C.3     
  17 O17           -3.1404     4.1598    -1.2956 O.2     
  18 O18           -3.6253     3.3208     0.7948 O.3     
  19 C19           -4.9569     3.8169     0.9461 C.3     
  20 Cl20           1.2109    -2.3997    -0.0218 Cl      
  21 Cl21           3.8992    -0.8396    -0.0394 Cl      
  22 H22           -0.9246    -0.5587     0.0082 H       
  23 H23            3.3602     1.9283    -0.0183 H       
  24 H24           -0.8121     5.9582     0.0404 H       
  25 H25            1.5062     6.1336    -2.1194 H       
  26 H26            3.0270     6.4253    -1.2418 H       
  27 H27            2.2980     4.8015    -1.2437 H       
  28 H28            0.4340     7.9807     0.9296 H       
  29 H29            1.9385     8.2819     0.0274 H       
  30 H30            0.4177     7.9901    -0.8502 H       
  31 H31            2.3209     4.7883     1.2547 H       
  32 H32            3.0500     6.4121     1.2566 H       
  33 H33            1.5455     6.1109     2.1588 H       
  34 H34           -4.9346     4.7531     1.5038 H       
  35 H35           -5.3940     3.9900    -0.0372 H       
  36 H36           -5.5576     3.0858     1.4872 H       
@<TRIPOS>BOND
   1    1    2 ar
   2    1    6 ar
   3    1   10 ar
   4    2    3 ar
   5    2   22 1
   6    3    4 ar
   7    3   20 1
   8    4    5 ar
   9    4   21 1
  10    5    6 ar
  11    5   23 1
  12    6    7 ar
  13    7    8 ar
  14    8    9 ar
  15    8   11 1
  16    9   10 ar
  17    9   12 1
  18   11   13 1
  19   11   24 1
  20   12   17 2
  21   12   18 1
  22   13   14 1
  23   13   15 1
  24   13   16 1
  25   14   25 1
  26   14   26 1
  27   14   27 1
  28   15   28 1
  29   15   29 1
  30   15   30 1
  31   16   31 1
  32   16   32 1
  33   16   33 1
  34   18   19 1
  35   19   34 1
  36   19   35 1
  37   19   36 1

#	End of record

