#	Name: ASD01910323
#	Creating user name:	WinNT
#	Creation time:	15. 06. 2019 19:55

#	Modifying user name:	WinNT
#	Modification time:	15. 06. 2019 19:55

#	Program:	/corina/corina34_cracker 3.40 0067  02.08.2006

@<TRIPOS>MOLECULE
ASD01910323
  42   44    0    0    0
SMALL
NO_CHARGES


@<TRIPOS>ATOM
   1 C1             0.0162     1.3561    -0.6961 C.ar    
   2 C2            -0.0411     0.0705    -0.1804 C.ar    
   3 C3             1.0947    -0.5208     0.3509 C.ar    
   4 C4             2.2891     0.1671     0.3690 C.ar    
   5 C5             2.3536     1.4636    -0.1499 C.ar    
   6 C6             1.2047     2.0544    -0.6838 C.ar    
   7 C7             3.5912     2.1838    -0.1337 C.1     
   8 C8             4.6059     2.7742    -0.1204 C.1     
   9 C9             5.8435     3.4944    -0.1042 C.ar    
  10 C10            5.9051     4.7922    -0.6243 C.ar    
  11 C11            7.0857     5.4783    -0.6086 C.ar    
  12 C12            8.2326     4.8847    -0.0730 C.ar    
  13 C13            8.1719     3.5880     0.4465 C.ar    
  14 C14            6.9906     2.9029     0.4370 C.ar    
  15 C15            9.5084     5.6270    -0.0563 C.2     
  16 O16           10.5185     5.1098    -0.4929 O.2     
  17 N17            9.5536     6.8781     0.4429 N.am    
  18 C18           10.8302     7.5986     0.5427 C.3     
  19 C19           11.0100     8.0858     1.9839 C.3     
  20 C20            9.7886     8.9111     2.3954 C.3     
  21 C21            8.5350     8.0353     2.3344 C.3     
  22 C22            8.3264     7.5497     0.8920 C.3     
  23 O23            9.9676     9.3941     3.7283 O.3     
  24 F24           -1.2088    -0.6088    -0.1953 F       
  25 H25           -0.8711     1.8097    -1.1124 H       
  26 H26            1.0435    -1.5223     0.7518 H       
  27 H27            3.1732    -0.2945     0.7835 H       
  28 H28            1.2482     3.0556    -1.0865 H       
  29 H29            5.0193     5.2507    -1.0384 H       
  30 H30            7.1335     6.4797    -1.0102 H       
  31 H31            9.0584     3.1297     0.8594 H       
  32 H32            6.9437     1.9015     0.8386 H       
  33 H33           11.6490     6.9295     0.2783 H       
  34 H34           10.8211     8.4534    -0.1335 H       
  35 H35           11.1097     7.2274     2.6483 H       
  36 H36           11.9056     8.7036     2.0500 H       
  37 H37            9.6751     9.7554     1.7155 H       
  38 H38            8.6581     7.1775     2.9955 H       
  39 H39            7.6691     8.6172     2.6500 H       
  40 H40            8.1128     8.4019     0.2468 H       
  41 H41            7.4939     6.8467     0.8599 H       
  42 H42            9.2300     9.9268     4.0559 H       
@<TRIPOS>BOND
   1    1    2 ar
   2    1    6 ar
   3    1   25 1
   4    2    3 ar
   5    2   24 1
   6    3    4 ar
   7    3   26 1
   8    4    5 ar
   9    4   27 1
  10    5    6 ar
  11    5    7 1
  12    6   28 1
  13    7    8 3
  14    8    9 1
  15    9   10 ar
  16    9   14 ar
  17   10   11 ar
  18   10   29 1
  19   11   12 ar
  20   11   30 1
  21   12   13 ar
  22   12   15 1
  23   13   14 ar
  24   13   31 1
  25   14   32 1
  26   15   16 2
  27   15   17 am
  28   17   18 1
  29   17   22 1
  30   18   19 1
  31   18   33 1
  32   18   34 1
  33   19   20 1
  34   19   35 1
  35   19   36 1
  36   20   21 1
  37   20   23 1
  38   20   37 1
  39   21   22 1
  40   21   38 1
  41   21   39 1
  42   22   40 1
  43   22   41 1
  44   23   42 1

#	End of record

