#	Name: ASD07000015
#	Creating user name:	WinNT
#	Creation time:	15. 06. 2019 21:08

#	Modifying user name:	WinNT
#	Modification time:	15. 06. 2019 21:08

#	Program:	/corina/corina34_cracker 3.40 0067  02.08.2006

@<TRIPOS>MOLECULE
ASD07000015
  42   41    0    0    0
SMALL
NO_CHARGES


@<TRIPOS>ATOM
   1 C1            -0.0375     0.8241     0.1770 C.3     
   2 O2           -10.0861     4.5614     0.3985 O.3     
   3 C3            -0.1738    -0.6582    -0.0581 C.2     
   4 C4             1.0572    -1.5223    -0.1539 C.3     
   5 C5            -1.3623    -1.1957    -0.1793 C.2     
   6 C6            -2.5933    -0.3316    -0.0835 C.3     
   7 C7            -3.4497    -0.5233    -1.3368 C.3     
   8 C8            -4.6807     0.3407    -1.2410 C.2     
   9 C9            -5.8981    -0.1608    -0.5081 C.3     
  10 C10           -4.6924     1.5278    -1.7949 C.2     
  11 C11           -5.9605     2.3419    -1.8054 C.3     
  12 C12           -5.6962     3.7061    -1.1650 C.3     
  13 C13           -6.9643     4.5202    -1.1755 C.2     
  14 C14           -7.3327     5.3254    -2.3949 C.3     
  15 C15           -7.7465     4.5278    -0.1246 C.2     
  16 C16           -9.0146     5.3419    -0.1351 C.3     
  17 H17            1.0183     1.0847     0.2509 H       
  18 H18           -0.4884     1.3667    -0.6538 H       
  19 H19           -0.5438     1.0929     1.1041 H       
  20 H20          -10.9353     5.0233     0.4222 H       
  21 H21            1.3220    -1.8887     0.8379 H       
  22 H22            0.8573    -2.3678    -0.8122 H       
  23 H23            1.8826    -0.9354    -0.5568 H       
  24 H24           -1.4600    -2.2580    -0.3478 H       
  25 H25           -3.1692    -0.6161     0.7971 H       
  26 H26           -2.2976     0.7143    -0.0020 H       
  27 H27           -2.8737    -0.2389    -2.2174 H       
  28 H28           -3.7454    -1.5693    -1.4183 H       
  29 H29           -5.6889    -1.1438    -0.0862 H       
  30 H30           -6.1506     0.5326     0.2941 H       
  31 H31           -6.7355    -0.2340    -1.2020 H       
  32 H32           -3.7932     1.9231    -2.2440 H       
  33 H33           -6.2940     2.4818    -2.8337 H       
  34 H34           -6.7326     1.8191    -1.2410 H       
  35 H35           -5.3627     3.5662    -0.1367 H       
  36 H36           -4.9241     4.2289    -1.7294 H       
  37 H37           -7.9358     4.7136    -3.0657 H       
  38 H38           -7.9036     6.2031    -2.0918 H       
  39 H39           -6.4252     5.6420    -2.9090 H       
  40 H40           -7.4824     3.9507     0.7492 H       
  41 H41           -9.2514     5.6325    -1.1587 H       
  42 H42           -8.8777     6.2355     0.4738 H       
@<TRIPOS>BOND
   1    1    3 1
   2    1   17 1
   3    1   18 1
   4    1   19 1
   5    2   16 1
   6    2   20 1
   7    3    4 1
   8    3    5 2
   9    4   21 1
  10    4   22 1
  11    4   23 1
  12    5    6 1
  13    5   24 1
  14    6    7 1
  15    6   25 1
  16    6   26 1
  17    7    8 1
  18    7   27 1
  19    7   28 1
  20    8    9 1
  21    8   10 2
  22    9   29 1
  23    9   30 1
  24    9   31 1
  25   10   11 1
  26   10   32 1
  27   11   12 1
  28   11   33 1
  29   11   34 1
  30   12   13 1
  31   12   35 1
  32   12   36 1
  33   13   14 1
  34   13   15 2
  35   14   37 1
  36   14   38 1
  37   14   39 1
  38   15   16 1
  39   15   40 1
  40   16   41 1
  41   16   42 1

#	End of record

