#	Name: ASD01811311
#	Creating user name:	WinNT
#	Creation time:	15. 06. 2019 19:26

#	Modifying user name:	WinNT
#	Modification time:	15. 06. 2019 19:26

#	Program:	/corina/corina34_cracker 3.40 0067  02.08.2006

@<TRIPOS>MOLECULE
ASD01811311
  58   61    0    0    0
SMALL
NO_CHARGES


@<TRIPOS>ATOM
   1 N1            -0.0830     1.3871    -0.3306 N.am    
   2 C2             0.0332     0.0106    -0.1044 C.ar    
   3 C3            -1.0932    -0.7390     0.2115 C.ar    
   4 C4            -0.9838    -2.0988     0.4359 C.ar    
   5 C5             0.2448    -2.7207     0.3477 C.ar    
   6 C6             1.3826    -1.9764     0.0305 C.ar    
   7 C7             1.2712    -0.6056    -0.2011 C.ar    
   8 C8            -2.4387    -0.0674     0.3103 C.3     
   9 C9             2.7005    -2.6400    -0.0643 C.2     
  10 O10            3.7070    -2.0418     0.2620 O.2     
  11 N11            2.7857    -3.9083    -0.5124 N.am    
  12 C12            4.0706    -4.6208    -0.5031 C.3     
  13 C13            4.3460    -5.1592    -1.9106 C.3     
  14 C14            3.1589    -6.0098    -2.3683 C.3     
  15 C15            1.8984    -5.1434    -2.4207 C.3     
  16 C16            1.5942    -4.6067    -1.0138 C.3     
  17 C17            3.4410    -6.5691    -3.7390 C.ar    
  18 N18            3.9521    -7.7799    -3.8529 N.ar    
  19 C19            4.2170    -8.3156    -5.0264 C.ar    
  20 C20            3.9615    -7.6092    -6.2029 C.ar    
  21 C21            3.4188    -6.3210    -6.1139 C.ar    
  22 C22            3.1542    -5.8065    -4.8572 C.ar    
  23 C23            4.2498    -8.1913    -7.4790 C.1     
  24 N24            4.4786    -8.6532    -8.4914 N.1     
  25 C25            0.9460     2.2072    -0.0389 C.2     
  26 N26            0.8652     3.5202    -0.3319 N.am    
  27 O27            1.9472     1.7625     0.4885 O.2     
  28 C28            1.9084     4.5225    -0.0696 C.3     
  29 C29            1.3646     5.8856    -0.5468 C.3     
  30 C30           -0.1720     5.6712    -0.5319 C.3     
  31 C31           -0.2813     4.1883    -0.9742 C.3     
  32 H32           -0.9026     1.7502    -0.7011 H       
  33 H33           -1.8629    -2.6762     0.6815 H       
  34 H34            0.3263    -3.7830     0.5244 H       
  35 H35            2.1472    -0.0254    -0.4508 H       
  36 H36           -2.9251    -0.0831    -0.6650 H       
  37 H37           -3.0576    -0.5985     1.0336 H       
  38 H38           -2.3066     0.9650     0.6339 H       
  39 H39            4.8664    -3.9352    -0.2119 H       
  40 H40            4.0234    -5.4501     0.2027 H       
  41 H41            4.4828    -4.3252    -2.5989 H       
  42 H42            5.2478    -5.7712    -1.8960 H       
  43 H43            3.0072    -6.8295    -1.6660 H       
  44 H44            2.0583    -4.3095    -3.1042 H       
  45 H45            1.0583    -5.7441    -2.7692 H       
  46 H46            1.3492    -5.4349    -0.3488 H       
  47 H47            0.7556    -3.9118    -1.0597 H       
  48 H48            4.6357    -9.3098    -5.0790 H       
  49 H49            3.2084    -5.7458    -7.0035 H       
  50 H50            2.7320    -4.8182    -4.7500 H       
  51 H51            2.1239     4.5626     0.9981 H       
  52 H52            2.8128     4.2698    -0.6232 H       
  53 H53            1.6501     6.6782     0.1447 H       
  54 H54            1.7131     6.1082    -1.5553 H       
  55 H55           -0.5768     5.8144     0.4700 H       
  56 H56           -0.6652     6.3281    -1.2483 H       
  57 H57           -0.2135     4.1101    -2.0593 H       
  58 H58           -1.2163     3.7545    -0.6194 H       
@<TRIPOS>BOND
   1    1    2 1
   2    1   25 am
   3    1   32 1
   4    2    3 ar
   5    2    7 ar
   6    3    4 ar
   7    3    8 1
   8    4    5 ar
   9    4   33 1
  10    5    6 ar
  11    5   34 1
  12    6    7 ar
  13    6    9 1
  14    7   35 1
  15    8   36 1
  16    8   37 1
  17    8   38 1
  18    9   10 2
  19    9   11 am
  20   11   12 1
  21   11   16 1
  22   12   13 1
  23   12   39 1
  24   12   40 1
  25   13   14 1
  26   13   41 1
  27   13   42 1
  28   14   15 1
  29   14   17 1
  30   14   43 1
  31   15   16 1
  32   15   44 1
  33   15   45 1
  34   16   46 1
  35   16   47 1
  36   17   18 ar
  37   17   22 ar
  38   18   19 ar
  39   19   20 ar
  40   19   48 1
  41   20   21 ar
  42   20   23 1
  43   21   22 ar
  44   21   49 1
  45   22   50 1
  46   23   24 3
  47   25   26 am
  48   25   27 2
  49   26   28 1
  50   26   31 1
  51   28   29 1
  52   28   51 1
  53   28   52 1
  54   29   30 1
  55   29   53 1
  56   29   54 1
  57   30   31 1
  58   30   55 1
  59   30   56 1
  60   31   57 1
  61   31   58 1

#	End of record

