#	Name: ASD03331540
#	Creating user name:	WinNT
#	Creation time:	15. 06. 2019 20:39

#	Modifying user name:	WinNT
#	Modification time:	15. 06. 2019 20:39

#	Program:	/corina/corina34_cracker 3.40 0067  02.08.2006

@<TRIPOS>MOLECULE
ASD03331540
  64   66    0    0    0
SMALL
NO_CHARGES


@<TRIPOS>ATOM
   1 C1            -0.5169     1.4312    -1.6645 C.3     
   2 C2            -0.4889    -0.0980    -1.7043 C.3     
   3 C3             0.8537     1.9497    -1.3128 C.2     
   4 N4             1.1547     2.7115    -0.2297 N.pl3   
   5 C5             2.4802     2.9811    -0.2754 C.2     
   6 C6             2.9777     2.3650    -1.3820 C.2     
   7 N7             1.9419     1.7350    -1.9957 N.2     
   8 C8             0.2193     3.1530     0.8093 C.3     
   9 C9             0.7183     4.4634     1.4218 C.3     
  10 C10            1.6426     4.1659     2.6018 C.3     
  11 C11            2.8650     3.3812     2.1355 C.3     
  12 C12            3.2417     3.8195     0.7169 C.3     
  13 C13            4.3814     2.3745    -1.8291 C.2     
  14 O14            5.2205     2.9754    -1.1856 O.2     
  15 N15            4.7357     1.7174    -2.9512 N.am    
  16 C16            6.1315     1.7269    -3.3959 C.3     
  17 C17            6.1863     1.4951    -4.8839 C.2     
  18 C18            6.2064    -0.7239    -2.9156 C.3     
  19 N19            7.2053     1.9996    -5.6075 N.am    
  20 O20            5.3134     0.8545    -5.4304 O.2     
  21 C21            6.9029     0.6175    -2.6782 C.3     
  22 C22            8.3310     0.5542    -3.2237 C.3     
  23 C23            6.9429     0.9128    -1.1775 C.3     
  24 C24            7.3184     1.6831    -7.0334 C.3     
  25 C25           -1.8804    -0.6245    -2.0613 C.3     
  26 C26           -2.2929    -0.0861    -3.4327 C.3     
  27 C27           -2.3209     1.4431    -3.3930 C.3     
  28 C28           -0.9294     1.9696    -3.0360 C.3     
  29 F29           -1.3722    -0.5108    -4.3967 F       
  30 F30           -3.5653    -0.5675    -3.7592 F       
  31 H31           -1.2342     1.7620    -0.9135 H       
  32 H32            0.2285    -0.4289    -2.4553 H       
  33 H33           -0.1949    -0.4816    -0.7272 H       
  34 H34           -0.7654     3.3096     0.3689 H       
  35 H35            0.1529     2.3910     1.5859 H       
  36 H36            1.2643     5.0307     0.6681 H       
  37 H37           -0.1335     5.0490     1.7676 H       
  38 H38            1.9667     5.1045     3.0513 H       
  39 H39            1.1010     3.5814     3.3455 H       
  40 H40            3.6996     3.5745     2.8093 H       
  41 H41            2.6353     2.3156     2.1377 H       
  42 H42            4.3122     3.6817     0.5649 H       
  43 H43            2.9850     4.8699     0.5796 H       
  44 H44            4.0664     1.2382    -3.4644 H       
  45 H45            6.5809     2.6919    -3.1617 H       
  46 H46            6.1779    -0.9342    -3.9847 H       
  47 H47            6.7559    -1.5142    -2.4043 H       
  48 H48            5.1890    -0.6788    -2.5270 H       
  49 H49            7.8639     2.5723    -5.1841 H       
  50 H50            8.8433     1.4924    -3.0105 H       
  51 H51            8.8656    -0.2680    -2.7479 H       
  52 H52            8.3014     0.3930    -4.3013 H       
  53 H53            5.9256     0.9579    -0.7888 H       
  54 H54            7.4925     0.1225    -0.6662 H       
  55 H55            7.4392     1.8684    -1.0083 H       
  56 H56            7.4144     0.6047    -7.1597 H       
  57 H57            6.4271     2.0321    -7.5548 H       
  58 H58            8.1979     2.1770    -7.4466 H       
  59 H59           -1.8604    -1.7140    -2.0896 H       
  60 H60           -2.5977    -0.2937    -1.3103 H       
  61 H61           -2.6149     1.8266    -4.3700 H       
  62 H62           -3.0383     1.7739    -2.6420 H       
  63 H63           -0.9494     3.0590    -3.0076 H       
  64 H64           -0.2121     1.6387    -3.7870 H       
@<TRIPOS>BOND
   1    1    2 1
   2    1    3 1
   3    1   28 1
   4    1   31 1
   5    2   25 1
   6    2   32 1
   7    2   33 1
   8    3    4 1
   9    3    7 2
  10    4    5 1
  11    4    8 1
  12    5    6 2
  13    5   12 1
  14    6    7 1
  15    6   13 1
  16    8    9 1
  17    8   34 1
  18    8   35 1
  19    9   10 1
  20    9   36 1
  21    9   37 1
  22   10   11 1
  23   10   38 1
  24   10   39 1
  25   11   12 1
  26   11   40 1
  27   11   41 1
  28   12   42 1
  29   12   43 1
  30   13   14 2
  31   13   15 am
  32   15   16 1
  33   15   44 1
  34   16   21 1
  35   16   17 1
  36   16   45 1
  37   17   19 am
  38   17   20 2
  39   18   21 1
  40   18   46 1
  41   18   47 1
  42   18   48 1
  43   19   24 1
  44   19   49 1
  45   21   22 1
  46   21   23 1
  47   22   50 1
  48   22   51 1
  49   22   52 1
  50   23   53 1
  51   23   54 1
  52   23   55 1
  53   24   56 1
  54   24   57 1
  55   24   58 1
  56   25   26 1
  57   25   59 1
  58   25   60 1
  59   26   27 1
  60   26   29 1
  61   26   30 1
  62   27   28 1
  63   27   61 1
  64   27   62 1
  65   28   63 1
  66   28   64 1

#	End of record

