#	Name: ASD07300872
#	Creating user name:	WinNT
#	Creation time:	15. 06. 2019 21:10

#	Modifying user name:	WinNT
#	Modification time:	15. 06. 2019 21:10

#	Program:	/corina/corina34_cracker 3.40 0067  02.08.2006

@<TRIPOS>MOLECULE
ASD07300872
  50   54    0    0    0
SMALL
NO_CHARGES


@<TRIPOS>ATOM
   1 N1            -0.0163     1.3527     0.0095 N.am    
   2 C2             0.0021    -0.0041     0.0020 C.2     
   3 N3             1.1018    -0.6986    -0.0118 N.2     
   4 C4             2.3098    -0.1133    -0.0201 C.2     
   5 C5             2.3914     1.2881    -0.0138 C.2     
   6 C6             1.1433     2.0510     0.0022 C.2     
   7 N7             3.5868    -0.5761    -0.0344 N.pl3   
   8 N8             4.4535     0.5241    -0.0369 N.2     
   9 C9             3.7572     1.6272    -0.0249 C.2     
  10 O10            1.1474     3.2693     0.0079 O.2     
  11 C11            3.9887    -1.9848    -0.0448 C.3     
  12 C12            4.8114    -2.2736    -1.3042 C.3     
  13 C13            5.2930    -3.7264    -1.2676 C.3     
  14 C14            5.3246    -3.7351     1.1304 C.3     
  15 C15            4.8443    -2.2827     1.1903 C.3     
  16 C16           -1.3127    -0.7405     0.0106 C.3     
  17 C17           -1.2319    -2.1525    -0.5933 C.3     
  18 C18           -2.1705    -2.6047     0.5378 C.3     
  19 C19           -1.6303    -1.4185     1.3539 C.3     
  20 O20            6.0561    -3.9441    -0.0792 O.3     
  21 C21           -1.8456    -2.2582    -1.9656 C.2     
  22 N22           -1.2207    -2.6177    -3.0504 N.2     
  23 O23           -3.1251    -2.0034    -2.2698 O.3     
  24 C24           -3.2824    -2.2108    -3.5919 C.2     
  25 C25           -2.0898    -2.5947    -4.0764 C.2     
  26 C26           -4.5574    -2.0468    -4.3784 C.3     
  27 C27           -1.7813    -2.9378    -5.5110 C.3     
  28 H28           -0.8640     1.8242     0.0160 H       
  29 H29            4.1599     2.6293    -0.0236 H       
  30 H30            3.1010    -2.6173    -0.0362 H       
  31 H31            4.1923    -2.1172    -2.1875 H       
  32 H32            5.6719    -1.6054    -1.3383 H       
  33 H33            4.4321    -4.3950    -1.2744 H       
  34 H34            5.9148    -3.9253    -2.1405 H       
  35 H35            5.9692    -3.9403     1.9851 H       
  36 H36            4.4642    -4.4038     1.1551 H       
  37 H37            5.7055    -1.6147     1.2065 H       
  38 H38            4.2488    -2.1328     2.0908 H       
  39 H39           -2.1349    -0.1434    -0.3838 H       
  40 H40           -0.2371    -2.5946    -0.5382 H       
  41 H41           -3.2280    -2.5177     0.2886 H       
  42 H42           -1.9120    -3.5770     0.9572 H       
  43 H43           -0.7444    -1.6599     1.9413 H       
  44 H44           -2.3958    -0.9024     1.9332 H       
  45 H45           -5.3576    -1.7276    -3.7107 H       
  46 H46           -4.4112    -1.2962    -5.1551 H       
  47 H47           -4.8255    -2.9980    -4.8382 H       
  48 H48           -1.4652    -2.0386    -6.0397 H       
  49 H49           -0.9823    -3.6785    -5.5438 H       
  50 H50           -2.6735    -3.3446    -5.9872 H       
@<TRIPOS>BOND
   1    1    2 1
   2    1    6 am
   3    1   28 1
   4    2    3 2
   5    2   16 1
   6    3    4 1
   7    4    5 2
   8    4    7 1
   9    5    6 1
  10    5    9 1
  11    6   10 2
  12    7    8 1
  13    7   11 1
  14    8    9 2
  15    9   29 1
  16   11   12 1
  17   11   15 1
  18   11   30 1
  19   12   13 1
  20   12   31 1
  21   12   32 1
  22   13   20 1
  23   13   33 1
  24   13   34 1
  25   14   15 1
  26   14   20 1
  27   14   35 1
  28   14   36 1
  29   15   37 1
  30   15   38 1
  31   16   17 1
  32   16   19 1
  33   16   39 1
  34   17   18 1
  35   17   21 1
  36   17   40 1
  37   18   19 1
  38   18   41 1
  39   18   42 1
  40   19   43 1
  41   19   44 1
  42   21   22 2
  43   21   23 1
  44   22   25 1
  45   23   24 1
  46   24   25 2
  47   24   26 1
  48   25   27 1
  49   26   45 1
  50   26   46 1
  51   26   47 1
  52   27   48 1
  53   27   49 1
  54   27   50 1

#	End of record

