#	Name: ASD00170039
#	Creating user name:	WinNT
#	Creation time:	15. 06. 2019 18:31

#	Modifying user name:	WinNT
#	Modification time:	15. 06. 2019 18:31

#	Program:	/corina/corina34_cracker 3.40 0067  02.08.2006

@<TRIPOS>MOLECULE
ASD00170039
  35   37    0    0    0
SMALL
NO_CHARGES


@<TRIPOS>ATOM
   1 C1            -0.0282     1.4952    -0.3001 C.ar    
   2 C2             0.0052     0.0860    -0.4548 C.ar    
   3 C3            -1.1971    -0.6449    -0.4406 C.ar    
   4 C4            -2.3811    -0.0013    -0.2798 C.ar    
   5 C5            -2.4274     1.3959    -0.1254 C.ar    
   6 C6            -1.2618     2.1438    -0.1399 C.ar    
   7 C7             1.1774     2.2196    -0.3158 C.ar    
   8 C8             2.3570     1.5607    -0.4787 C.ar    
   9 C9             2.3893     0.1758    -0.6311 C.ar    
  10 C10            1.2426    -0.5580    -0.6205 C.ar    
  11 C11           -3.7308     2.0721     0.0480 C.2     
  12 C12           -4.9721     1.3054    -0.0566 C.2     
  13 C13           -5.6700     1.0744    -1.3038 C.2     
  14 C14           -6.7712     0.3538    -1.1597 C.2     
  15 S15           -7.0172    -0.0851     0.5211 S.3     
  16 C16           -5.6001     0.7205     1.0188 C.2     
  17 O17           -3.7709     3.2673     0.2780 O.2     
  18 N18           -5.1484     0.7829     2.3213 N.pl3   
  19 C19           -5.1915     1.6015    -2.6321 C.3     
  20 C20           -7.6906    -0.0367    -2.2881 C.3     
  21 H21           -1.1777    -1.7183    -0.5579 H       
  22 H22           -3.2997    -0.5693    -0.2708 H       
  23 H23           -1.3017     3.2164    -0.0210 H       
  24 H24            1.1671     3.2933    -0.1996 H       
  25 H25            3.2813     2.1191    -0.4905 H       
  26 H26            3.3386    -0.3231    -0.7591 H       
  27 H27            1.2840    -1.6306    -0.7398 H       
  28 H28           -5.6868     0.4154     3.0395 H       
  29 H29           -4.2924     1.1944     2.5187 H       
  30 H30           -4.5321     0.8689    -3.0975 H       
  31 H31           -6.0483     1.7831    -3.2809 H       
  32 H32           -4.6479     2.5337    -2.4786 H       
  33 H33           -7.3686    -0.9907    -2.7055 H       
  34 H34           -8.7090    -0.1302    -1.9111 H       
  35 H35           -7.6591     0.7284    -3.0638 H       
@<TRIPOS>BOND
   1    1    2 ar
   2    1    7 ar
   3    1    6 ar
   4    2    3 ar
   5    2   10 ar
   6    3    4 ar
   7    3   21 1
   8    4    5 ar
   9    4   22 1
  10    5    6 ar
  11    5   11 1
  12    6   23 1
  13    7    8 ar
  14    7   24 1
  15    8    9 ar
  16    8   25 1
  17    9   10 ar
  18    9   26 1
  19   10   27 1
  20   11   12 1
  21   11   17 2
  22   12   13 1
  23   12   16 2
  24   13   14 2
  25   13   19 1
  26   14   15 1
  27   14   20 1
  28   15   16 1
  29   16   18 1
  30   18   28 1
  31   18   29 1
  32   19   30 1
  33   19   31 1
  34   19   32 1
  35   20   33 1
  36   20   34 1
  37   20   35 1

#	End of record

