#	Name: ASD01916296
#	Creating user name:	WinNT
#	Creation time:	15. 06. 2019 20:07

#	Modifying user name:	WinNT
#	Modification time:	15. 06. 2019 20:07

#	Program:	/corina/corina34_cracker 3.40 0067  02.08.2006

@<TRIPOS>MOLECULE
ASD01916296
  42   43    0    0    0
SMALL
NO_CHARGES


@<TRIPOS>ATOM
   1 C1            -0.0169     1.3976     0.0097 C.ar    
   2 C2             0.0021    -0.0041     0.0020 C.ar    
   3 C3             1.2368    -0.6677    -0.0133 C.ar    
   4 N4             2.3606     0.0095    -0.0204 N.ar    
   5 C5             2.3777     1.3384    -0.0135 C.ar    
   6 C6             1.1899     2.0702     0.0018 C.ar    
   7 C7            -1.2220    -0.7472     0.0102 C.1     
   8 C8            -2.2255    -1.3564     0.0169 C.1     
   9 C9            -3.4496    -2.0995     0.0250 C.ar    
  10 C10            3.6737     2.0513    -0.0220 C.2     
  11 O11            3.6989     3.2665    -0.0157 O.2     
  12 N12            4.8266     1.3535    -0.0368 N.am    
  13 C13            6.1102     2.0596    -0.0452 C.3     
  14 C14            7.1929     1.1567     0.5493 C.3     
  15 C15            6.4827     2.4233    -1.4839 C.3     
  16 C16            6.7615     0.6919     1.9416 C.3     
  17 O17            7.3814     0.0195    -0.2953 O.3     
  18 C18            8.5052     1.9361     0.6556 C.3     
  19 C19           -3.4330    -3.4968     0.0174 C.ar    
  20 N20           -4.5591    -4.1792     0.0249 N.ar    
  21 C21           -5.7357    -3.5826     0.0397 C.ar    
  22 C22           -5.8379    -2.2026     0.0481 C.ar    
  23 C23           -4.6854    -1.4380     0.0467 C.ar    
  24 H24           -0.9518     1.9383     0.0171 H       
  25 H25            1.2632    -1.7474    -0.0190 H       
  26 H26            1.2135     3.1499     0.0074 H       
  27 H27            4.8065     0.3837    -0.0418 H       
  28 H28            6.0285     2.9691     0.5499 H       
  29 H29            6.5644     1.5137    -2.0791 H       
  30 H30            5.7114     3.0665    -1.9074 H       
  31 H31            7.4377     2.9486    -1.4902 H       
  32 H32            5.8266     0.1366     1.8659 H       
  33 H33            7.5328     0.0486     2.3652 H       
  34 H34            6.6177     1.5593     2.5859 H       
  35 H35            7.6563     0.2397    -1.1959 H       
  36 H36            8.3614     2.8035     1.2999 H       
  37 H37            9.2765     1.2928     1.0791 H       
  38 H38            8.8125     2.2672    -0.3363 H       
  39 H39           -2.4890    -4.0212     0.0049 H       
  40 H40           -6.6344    -4.1815     0.0450 H       
  41 H41           -6.8077    -1.7276     0.0599 H       
  42 H42           -4.7363    -0.3592     0.0535 H       
@<TRIPOS>BOND
   1    1    2 ar
   2    1    6 ar
   3    1   24 1
   4    2    3 ar
   5    2    7 1
   6    3    4 ar
   7    3   25 1
   8    4    5 ar
   9    5    6 ar
  10    5   10 1
  11    6   26 1
  12    7    8 3
  13    8    9 1
  14    9   19 ar
  15    9   23 ar
  16   10   11 2
  17   10   12 am
  18   12   13 1
  19   12   27 1
  20   13   14 1
  21   13   15 1
  22   13   28 1
  23   14   16 1
  24   14   17 1
  25   14   18 1
  26   15   29 1
  27   15   30 1
  28   15   31 1
  29   16   32 1
  30   16   33 1
  31   16   34 1
  32   17   35 1
  33   18   36 1
  34   18   37 1
  35   18   38 1
  36   19   20 ar
  37   19   39 1
  38   20   21 ar
  39   21   22 ar
  40   21   40 1
  41   22   23 ar
  42   22   41 1
  43   23   42 1

#	End of record

