#	Name: ASD08178391
#	Creating user name:	WinNT
#	Creation time:	15. 06. 2019 21:18

#	Modifying user name:	WinNT
#	Modification time:	15. 06. 2019 21:18

#	Program:	/corina/corina34_cracker 3.40 0067  02.08.2006

@<TRIPOS>MOLECULE
ASD08178391
  74   77    0    0    0
SMALL
NO_CHARGES


@<TRIPOS>ATOM
   1 N1            -0.0168     1.3902     0.0097 N.am    
   2 C2            -0.2173     0.0103     0.0231 C.ar    
   3 C3             0.8683    -0.8557    -0.0926 C.ar    
   4 N4            -1.4399    -0.4832     0.1513 N.ar    
   5 N5            -1.6667    -1.7463     0.1686 N.ar    
   6 C6            -0.7002    -2.6368     0.0602 C.ar    
   7 C7             0.6159    -2.2190    -0.0733 C.ar    
   8 C8            -1.0247    -4.1082     0.0874 C.3     
   9 C9            -1.8115    -4.4335     1.3586 C.3     
  10 C10           -2.1410    -5.9273     1.3862 C.3     
  11 C11           -2.9278    -6.2527     2.6574 C.3     
  12 C12           -3.2523    -7.7241     2.6845 C.2     
  13 N13           -2.5213    -8.6581     3.2049 N.2     
  14 N14           -2.9690    -9.8359     3.1257 N.2     
  15 C15           -4.1130   -10.0077     2.5350 C.2     
  16 S16           -4.6995    -8.4828     2.0200 S.3     
  17 N17           -4.7575   -11.2270     2.3553 N.am    
  18 C18           -4.1929   -12.3617     2.8139 C.2     
  19 C19           -4.8913   -13.6828     2.6192 C.3     
  20 O20           -3.1229   -12.3195     3.3832 O.2     
  21 C21           -4.0568   -14.7853     3.2184 C.ar    
  22 C22           -1.0750     2.2250     0.0167 C.2     
  23 C23           -0.8601     3.7130     0.1198 C.3     
  24 O24           -2.2000     1.7786    -0.0599 O.2     
  25 C25           -2.1935     4.4152     0.1067 C.ar    
  26 C26           -2.8566     4.6619     1.2945 C.ar    
  27 C27           -2.7508     4.8175    -1.0924 C.ar    
  28 C28           -3.9741     5.4616    -1.1045 C.ar    
  29 C29           -4.6398     5.7029     0.0824 C.ar    
  30 C30           -4.0795     5.3059     1.2824 C.ar    
  31 C31           -4.2367   -15.1478     4.5402 C.ar    
  32 C32           -3.4711   -16.1590     5.0899 C.ar    
  33 C33           -2.5260   -16.8081     4.3177 C.ar    
  34 C34           -2.3467   -16.4462     2.9957 C.ar    
  35 C35           -3.1153   -15.4379     2.4448 C.ar    
  36 C36           -4.5813     5.9012    -2.4119 C.3     
  37 N37           -6.0247     5.6514    -2.3884 N.am    
  38 C38           -6.6973     5.4770    -3.5432 C.2     
  39 O39           -6.1077     5.5267    -4.6019 O.2     
  40 C40           -8.1820     5.2200    -3.5190 C.3     
  41 C41           -4.3256     7.3958    -2.6161 C.3     
  42 H42            0.8842     1.7494    -0.0006 H       
  43 H43            1.8745    -0.4770    -0.1944 H       
  44 H44            1.4199    -2.9345    -0.1636 H       
  45 H45           -1.6240    -4.3643    -0.7864 H       
  46 H46           -0.0997    -4.6845     0.0751 H       
  47 H47           -1.2123    -4.1774     2.2323 H       
  48 H48           -2.7366    -3.8571     1.3708 H       
  49 H49           -2.7402    -6.1835     0.5124 H       
  50 H50           -1.2159    -6.5037     1.3739 H       
  51 H51           -2.3286    -5.9966     3.5311 H       
  52 H52           -3.8529    -5.6763     2.6696 H       
  53 H53           -5.6133   -11.2607     1.9000 H       
  54 H54           -5.8640   -13.6554     3.1104 H       
  55 H55           -5.0274   -13.8683     1.5537 H       
  56 H56           -0.3385     3.9413     1.0493 H       
  57 H57           -0.2620     4.0532    -0.7255 H       
  58 H58           -2.4192     4.3512     2.2317 H       
  59 H59           -2.2306     4.6289    -2.0199 H       
  60 H60           -5.5952     6.2064     0.0730 H       
  61 H61           -4.5997     5.4944     2.2098 H       
  62 H62           -4.9751   -14.6406     5.1435 H       
  63 H63           -3.6112   -16.4417     6.1228 H       
  64 H64           -1.9274   -17.5977     4.7474 H       
  65 H65           -1.6081   -16.9531     2.3925 H       
  66 H66           -2.9752   -15.1552     1.4119 H       
  67 H67           -4.1288     5.3401    -3.2295 H       
  68 H68           -6.4963     5.6116    -1.5416 H       
  69 H69           -8.7158     6.1694    -3.5635 H       
  70 H70           -8.4587     4.6071    -4.3768 H       
  71 H71           -8.4455     4.6979    -2.5992 H       
  72 H72           -4.7648     7.7137    -3.5616 H       
  73 H73           -4.7782     7.9568    -1.7984 H       
  74 H74           -3.2517     7.5816    -2.6336 H       
@<TRIPOS>BOND
   1    1    2 1
   2    1   22 am
   3    1   42 1
   4    2    3 ar
   5    2    4 ar
   6    3    7 ar
   7    3   43 1
   8    4    5 ar
   9    5    6 ar
  10    6    7 ar
  11    6    8 1
  12    7   44 1
  13    8    9 1
  14    8   45 1
  15    8   46 1
  16    9   10 1
  17    9   47 1
  18    9   48 1
  19   10   11 1
  20   10   49 1
  21   10   50 1
  22   11   12 1
  23   11   51 1
  24   11   52 1
  25   12   13 2
  26   12   16 1
  27   13   14 1
  28   14   15 2
  29   15   16 1
  30   15   17 1
  31   17   18 am
  32   17   53 1
  33   18   19 1
  34   18   20 2
  35   19   21 1
  36   19   54 1
  37   19   55 1
  38   21   31 ar
  39   21   35 ar
  40   22   23 1
  41   22   24 2
  42   23   25 1
  43   23   56 1
  44   23   57 1
  45   25   26 ar
  46   25   27 ar
  47   26   30 ar
  48   26   58 1
  49   27   28 ar
  50   27   59 1
  51   28   29 ar
  52   28   36 1
  53   29   30 ar
  54   29   60 1
  55   30   61 1
  56   31   32 ar
  57   31   62 1
  58   32   33 ar
  59   32   63 1
  60   33   34 ar
  61   33   64 1
  62   34   35 ar
  63   34   65 1
  64   35   66 1
  65   36   37 1
  66   36   41 1
  67   36   67 1
  68   37   38 am
  69   37   68 1
  70   38   39 2
  71   38   40 1
  72   40   69 1
  73   40   70 1
  74   40   71 1
  75   41   72 1
  76   41   73 1
  77   41   74 1

#	End of record

