#	Name: ASD03730600
#	Creating user name:	WinNT
#	Creation time:	15. 06. 2019 20:44

#	Modifying user name:	WinNT
#	Modification time:	15. 06. 2019 20:44

#	Program:	/corina/corina34_cracker 3.40 0067  02.08.2006

@<TRIPOS>MOLECULE
ASD03730600
  61   66    0    0    0
SMALL
NO_CHARGES


@<TRIPOS>ATOM
   1 O1            -0.2773     1.2856     0.6383 O.3     
   2 C2            -0.2369    -0.1534     0.6720 C.3     
   3 O3             0.9333    -0.4811    -0.1001 O.3     
   4 C4             1.7641     0.5960     0.0208 C.ar    
   5 C5             1.0184     1.6829     0.4716 C.ar    
   6 C6             3.1190     0.7385    -0.2187 C.ar    
   7 C7             3.7453     1.9647    -0.0176 C.ar    
   8 C8             2.9875     3.0470     0.4194 C.ar    
   9 C9             1.6382     2.9056     0.6676 C.ar    
  10 O10            5.0556     2.3099    -0.1727 O.3     
  11 C11            3.9261     4.2204     0.5069 C.3     
  12 C12            5.1603     3.7433    -0.2710 C.3     
  13 N13            3.3465     6.3988     0.8823 N.am    
  14 C14            3.3369     5.4659    -0.0906 C.2     
  15 C15            4.2621     4.5802     1.9234 C.ar    
  16 C16            4.8253     3.8819     2.9829 C.ar    
  17 C17            5.0126     4.5169     4.2104 C.ar    
  18 C18            4.6359     5.8367     4.3623 C.ar    
  19 C19            4.0766     6.5305     3.3086 C.ar    
  20 C20            3.8838     5.9093     2.0758 C.ar    
  21 O21            2.9316     5.6049    -1.2253 O.2     
  22 C22            2.8517     7.7667     0.7085 C.3     
  23 C23            1.3652     7.8207     1.0666 C.3     
  24 C24            0.8485     9.2493     0.8851 C.3     
  25 C25           -0.6380     9.3034     1.2432 C.3     
  26 C26           -1.1547    10.7320     1.0617 C.3     
  27 C27            5.2262     2.4642     2.8100 C.ar    
  28 C28            4.4288     1.4407     3.3308 C.ar    
  29 C29            4.8093     0.1192     3.1650 C.ar    
  30 C30            5.9744    -0.1867     2.4870 C.ar    
  31 C31            6.7676     0.8245     1.9699 C.ar    
  32 C32            6.3956     2.1471     2.1233 C.ar    
  33 O33            3.2839     1.7415     3.9980 O.3     
  34 C34            2.5196     0.6445     4.5024 C.3     
  35 F35            7.9053     0.5171     1.3093 F       
  36 H36           -0.1318    -0.5096     1.6968 H       
  37 H37           -1.1306    -0.5725     0.2096 H       
  38 H38            3.6947    -0.1076    -0.5638 H       
  39 H39            1.0633     3.7509     1.0159 H       
  40 H40            6.0765     4.0978     0.2011 H       
  41 H41            5.1102     4.0646    -1.3114 H       
  42 H42            5.4500     3.9788     5.0385 H       
  43 H43            4.7798     6.3294     5.3126 H       
  44 H44            3.7857     7.5622     3.4404 H       
  45 H45            3.4074     8.4397     1.3615 H       
  46 H46            2.9870     8.0729    -0.3288 H       
  47 H47            0.8095     7.1477     0.4137 H       
  48 H48            1.2300     7.5145     2.1039 H       
  49 H49            1.4042     9.9224     1.5381 H       
  50 H50            0.9837     9.5556    -0.1522 H       
  51 H51           -1.1937     8.6303     0.5902 H       
  52 H52           -0.7733     8.9971     2.2805 H       
  53 H53           -1.0195    11.0382     0.0244 H       
  54 H54           -2.2138    10.7705     1.3168 H       
  55 H55           -0.5990    11.4050     1.7146 H       
  56 H56            4.1950    -0.6733     3.5663 H       
  57 H57            6.2678    -1.2183     2.3602 H       
  58 H58            7.0133     2.9334     1.7153 H       
  59 H59            2.2166     0.0022     3.6756 H       
  60 H60            3.1257     0.0716     5.2042 H       
  61 H61            1.6336     1.0229     5.0122 H       
@<TRIPOS>BOND
   1    1    2 1
   2    1    5 1
   3    2    3 1
   4    2   36 1
   5    2   37 1
   6    3    4 1
   7    4    5 ar
   8    4    6 ar
   9    5    9 ar
  10    6    7 ar
  11    6   38 1
  12    7    8 ar
  13    7   10 1
  14    8    9 ar
  15    8   11 1
  16    9   39 1
  17   10   12 1
  18   11   12 1
  19   11   14 1
  20   11   15 1
  21   12   40 1
  22   12   41 1
  23   13   14 am
  24   13   20 1
  25   13   22 1
  26   14   21 2
  27   15   16 ar
  28   15   20 ar
  29   16   17 ar
  30   16   27 1
  31   17   18 ar
  32   17   42 1
  33   18   19 ar
  34   18   43 1
  35   19   20 ar
  36   19   44 1
  37   22   23 1
  38   22   45 1
  39   22   46 1
  40   23   24 1
  41   23   47 1
  42   23   48 1
  43   24   25 1
  44   24   49 1
  45   24   50 1
  46   25   26 1
  47   25   51 1
  48   25   52 1
  49   26   53 1
  50   26   54 1
  51   26   55 1
  52   27   28 ar
  53   27   32 ar
  54   28   29 ar
  55   28   33 1
  56   29   30 ar
  57   29   56 1
  58   30   31 ar
  59   30   57 1
  60   31   32 ar
  61   31   35 1
  62   32   58 1
  63   33   34 1
  64   34   59 1
  65   34   60 1
  66   34   61 1

#	End of record

