#	Name: ASD01150731
#	Creating user name:	WinNT
#	Creation time:	15. 06. 2019 19:04

#	Modifying user name:	WinNT
#	Modification time:	15. 06. 2019 19:04

#	Program:	/corina/corina34_cracker 3.40 0067  02.08.2006

@<TRIPOS>MOLECULE
ASD01150731
  35   37    0    0    0
SMALL
NO_CHARGES


@<TRIPOS>ATOM
   1 C1             0.0235     1.4855     0.4587 C.2     
   2 C2            -0.3817     1.2184     1.8855 C.3     
   3 F3            -0.5620    -0.1567     2.0694 F       
   4 F4             0.6196     1.6770     2.7482 F       
   5 F5            -1.5788     1.8870     2.1633 F       
   6 N6             3.6122     1.9477    -0.3157 N.ar    
   7 C7             2.4615     1.3842    -0.0565 C.ar    
   8 C8             1.3009     2.1464     0.1705 C.ar    
   9 C9             1.3800     3.5499     0.1174 C.ar    
  10 C10            2.6420     4.1277    -0.1659 C.ar    
  11 C11            2.8044     5.5180    -0.2360 C.ar    
  12 C12            4.0342     6.0405    -0.5104 C.ar    
  13 C13            5.1306     5.2078    -0.7224 C.ar    
  14 C14            5.0055     3.8527    -0.6616 C.ar    
  15 C15            3.7551     3.2784    -0.3805 C.ar    
  16 C16            0.1881     4.3921     0.3484 C.ar    
  17 C17            0.1318     5.2389     1.4577 C.ar    
  18 C18           -0.9836     6.0227     1.6670 C.ar    
  19 C19           -2.0454     5.9714     0.7810 C.ar    
  20 C20           -1.9966     5.1343    -0.3198 C.ar    
  21 C21           -0.8849     4.3493    -0.5445 C.ar    
  22 C22            2.3759    -0.1193     0.0001 C.3     
  23 Br23           4.2529     7.9164    -0.6049 Br      
  24 O24           -0.7045     1.1494    -0.4516 O.2     
  25 H25            1.9604     6.1720    -0.0739 H       
  26 H26            6.0949     5.6434    -0.9386 H       
  27 H27            5.8657     3.2215    -0.8291 H       
  28 H28            0.9597     5.2796     2.1501 H       
  29 H29           -1.0287     6.6776     2.5245 H       
  30 H30           -2.9164     6.5872     0.9497 H       
  31 H31           -2.8289     5.0989    -1.0071 H       
  32 H32           -0.8461     3.6998    -1.4065 H       
  33 H33            2.4740    -0.4501     1.0341 H       
  34 H34            1.4132    -0.4435    -0.3953 H       
  35 H35            3.1784    -0.5517    -0.5974 H       
@<TRIPOS>BOND
   1    1    2 1
   2    1    8 1
   3    1   24 2
   4    2    3 1
   5    2    4 1
   6    2    5 1
   7    6    7 ar
   8    6   15 ar
   9    7    8 ar
  10    7   22 1
  11    8    9 ar
  12    9   10 ar
  13    9   16 1
  14   10   11 ar
  15   10   15 ar
  16   11   12 ar
  17   11   25 1
  18   12   13 ar
  19   12   23 1
  20   13   14 ar
  21   13   26 1
  22   14   15 ar
  23   14   27 1
  24   16   17 ar
  25   16   21 ar
  26   17   18 ar
  27   17   28 1
  28   18   19 ar
  29   18   29 1
  30   19   20 ar
  31   19   30 1
  32   20   21 ar
  33   20   31 1
  34   21   32 1
  35   22   33 1
  36   22   34 1
  37   22   35 1

#	End of record

