#	Name: ASD01916431
#	Creating user name:	WinNT
#	Creation time:	15. 06. 2019 20:07

#	Modifying user name:	WinNT
#	Modification time:	15. 06. 2019 20:07

#	Program:	/corina/corina34_cracker 3.40 0067  02.08.2006

@<TRIPOS>MOLECULE
ASD01916431
  44   45    0    0    0
SMALL
NO_CHARGES


@<TRIPOS>ATOM
   1 C1            -0.0179     1.4681     0.0101 C.2     
   2 C2             0.0021    -0.0041     0.0020 C.ar    
   3 C3             0.0232    -0.7167     1.2098 C.ar    
   4 C4             0.0419    -2.1019     1.1906 C.ar    
   5 C5             0.0398    -2.7816    -0.0133 C.ar    
   6 C6             0.0195    -2.0890    -1.2096 C.ar    
   7 C7            -0.0057    -0.7038    -1.2134 C.ar    
   8 O8             1.0270     2.0905     0.0035 O.2     
   9 N9            -1.1941     2.1261     0.0193 N.am    
  10 C10           -1.2140     3.5909     0.0273 C.3     
  11 C11           -1.2277     4.1087    -1.4123 C.3     
  12 C12           -1.2477     5.5806    -1.4042 C.1     
  13 C13           -1.2636     6.7544    -1.3978 C.1     
  14 C14           -1.2831     8.1863    -1.3899 C.ar    
  15 C15           -1.2982     8.8851    -2.5976 C.ar    
  16 C16           -1.3169    10.2683    -2.5732 C.ar    
  17 C17           -1.3199    10.9097    -1.3421 C.ar    
  18 C18           -1.3042    10.1552    -0.1836 C.ar    
  19 N19           -1.2920     8.8388    -0.2333 N.ar    
  20 C20           -2.4528     1.3764     0.0212 C.3     
  21 O21           -0.0318    -0.0267    -2.3887 O.3     
  22 C22           -0.0382    -0.8060    -3.5864 C.3     
  23 O23            0.0258    -0.0522     2.3924 O.3     
  24 C24            0.0478    -0.8443     3.5816 C.3     
  25 H25            0.0586    -2.6528     2.1194 H       
  26 H26            0.0545    -3.8615    -0.0192 H       
  27 H27            0.0188    -2.6298    -2.1444 H       
  28 H28           -2.1064     3.9393     0.5473 H       
  29 H29           -0.3266     3.9635     0.5390 H       
  30 H30           -0.3354     3.7603    -1.9323 H       
  31 H31           -2.1151     3.7361    -1.9240 H       
  32 H32           -1.2950     8.3539    -3.5379 H       
  33 H33           -1.3285    10.8364    -3.4916 H       
  34 H34           -1.3339    11.9883    -1.2897 H       
  35 H35           -1.3061    10.6519     0.7754 H       
  36 H36           -2.7601     1.1849     1.0493 H       
  37 H37           -3.2228     1.9579    -0.4859 H       
  38 H38           -2.3120     0.4287    -0.4985 H       
  39 H39           -0.0596    -0.1429    -4.4512 H       
  40 H40            0.8598    -1.4226    -3.6235 H       
  41 H41           -0.9198    -1.4469    -3.5981 H       
  42 H42           -0.8335    -1.4851     3.6077 H       
  43 H43            0.9462    -1.4614     3.5905 H       
  44 H44            0.0475    -0.1904     4.4537 H       
@<TRIPOS>BOND
   1    1    2 1
   2    1    8 2
   3    1    9 am
   4    2    3 ar
   5    2    7 ar
   6    3    4 ar
   7    3   23 1
   8    4    5 ar
   9    4   25 1
  10    5    6 ar
  11    5   26 1
  12    6    7 ar
  13    6   27 1
  14    7   21 1
  15    9   10 1
  16    9   20 1
  17   10   11 1
  18   10   28 1
  19   10   29 1
  20   11   12 1
  21   11   30 1
  22   11   31 1
  23   12   13 3
  24   13   14 1
  25   14   15 ar
  26   14   19 ar
  27   15   16 ar
  28   15   32 1
  29   16   17 ar
  30   16   33 1
  31   17   18 ar
  32   17   34 1
  33   18   19 ar
  34   18   35 1
  35   20   36 1
  36   20   37 1
  37   20   38 1
  38   21   22 1
  39   22   39 1
  40   22   40 1
  41   22   41 1
  42   23   24 1
  43   24   42 1
  44   24   43 1
  45   24   44 1

#	End of record

