#	Name: ASD03331537
#	Creating user name:	WinNT
#	Creation time:	15. 06. 2019 20:39

#	Modifying user name:	WinNT
#	Modification time:	15. 06. 2019 20:39

#	Program:	/corina/corina34_cracker 3.40 0067  02.08.2006

@<TRIPOS>MOLECULE
ASD03331537
  67   69    0    0    0
SMALL
NO_CHARGES


@<TRIPOS>ATOM
   1 C1            -0.1517     0.5049     1.4256 C.3     
   2 C2             0.0688    -0.9994     1.5967 C.3     
   3 N3            -1.2094    -1.6482     1.9184 N.3     
   4 C4             1.1595     1.1704     1.0956 C.2     
   5 N5             1.6511     1.3676    -0.1548 N.pl3   
   6 C6             2.8510     1.9810    -0.0300 C.2     
   7 C7             3.0713     2.1661     1.3000 C.2     
   8 N8             2.0015     1.6545     1.9634 N.2     
   9 C9             0.9981     0.9965    -1.4138 C.3     
  10 C10            2.0613     0.7432    -2.4848 C.3     
  11 C11            2.3808     2.0458    -3.2172 C.3     
  12 C12            2.9435     3.0784    -2.2454 C.3     
  13 C13            3.7632     2.3674    -1.1640 C.3     
  14 C14            4.2498     2.8079     1.9081 C.2     
  15 O15            5.1438     3.2322     1.2011 O.2     
  16 N16            4.3371     2.9247     3.2480 N.am    
  17 C17           -1.0873    -3.1120     1.8571 C.3     
  18 C18            5.5090     3.5629     3.8527 C.3     
  19 C19            5.6879     3.0540     5.2599 C.2     
  20 C20            4.0017     5.4061     4.6097 C.3     
  21 N21            6.9172     3.0149     5.8111 N.am    
  22 O22            4.7257     2.6797     5.8963 O.2     
  23 C23            5.3065     5.0792     3.8807 C.3     
  24 C24            6.4782     5.7368     4.6124 C.3     
  25 C25            5.2370     5.6109     2.4477 C.3     
  26 C26            7.0788     2.6248     7.2140 C.3     
  27 C27           -2.4219    -3.7471     2.2562 C.3     
  28 O28           -3.4544    -3.2536     1.3985 O.3     
  29 C29           -3.6013    -1.8314     1.4337 C.3     
  30 C30           -2.2786    -1.1769     1.0263 C.3     
  31 H31           -0.8610     0.6784     0.6163 H       
  32 H32           -0.5479     0.9217     2.3516 H       
  33 H33            0.4649    -1.4163     0.6708 H       
  34 H34            0.7781    -1.1729     2.4060 H       
  35 H35            0.4097     0.0911    -1.2648 H       
  36 H36            0.3435     1.8062    -1.7361 H       
  37 H37            2.9667     0.3614    -2.0131 H       
  38 H38            1.6886     0.0085    -3.1985 H       
  39 H39            3.1144     1.8491    -3.9990 H       
  40 H40            1.4703     2.4367    -3.6713 H       
  41 H41            3.5830     3.7759    -2.7863 H       
  42 H42            2.1229     3.6240    -1.7795 H       
  43 H43            4.5394     3.0379    -0.7952 H       
  44 H44            4.2221     1.4724    -1.5839 H       
  45 H45            3.6241     2.5863     3.8119 H       
  46 H46           -0.8298    -3.4136     0.8418 H       
  47 H47           -0.3077    -3.4413     2.5440 H       
  48 H48            6.3958     3.3255     3.2650 H       
  49 H49            4.0511     5.0273     5.6306 H       
  50 H50            3.8574     6.4863     4.6296 H       
  51 H51            3.1669     4.9376     4.0884 H       
  52 H52            7.6949     3.2450     5.2790 H       
  53 H53            7.4015     5.5453     4.0658 H       
  54 H54            6.3097     6.8119     4.6757 H       
  55 H55            6.5580     5.3218     5.6172 H       
  56 H56            4.4023     5.1424     1.9264 H       
  57 H57            5.0927     6.6911     2.4676 H       
  58 H58            6.1666     5.3780     1.9283 H       
  59 H59            8.1357     2.6516     7.4791 H       
  60 H60            6.5271     3.3175     7.8496 H       
  61 H61            6.6938     1.6152     7.3571 H       
  62 H62           -2.3535    -4.8305     2.1573 H       
  63 H63           -2.6531    -3.4893     3.2897 H       
  64 H64           -4.3858    -1.5293     0.7400 H       
  65 H65           -3.8668    -1.5179     2.4433 H       
  66 H66           -2.3686    -0.0936     1.1068 H       
  67 H67           -2.0402    -1.4475    -0.0023 H       
@<TRIPOS>BOND
   1    1    2 1
   2    1    4 1
   3    1   31 1
   4    1   32 1
   5    2    3 1
   6    2   33 1
   7    2   34 1
   8    3   17 1
   9    3   30 1
  10    4    5 1
  11    4    8 2
  12    5    6 1
  13    5    9 1
  14    6    7 2
  15    6   13 1
  16    7    8 1
  17    7   14 1
  18    9   10 1
  19    9   35 1
  20    9   36 1
  21   10   11 1
  22   10   37 1
  23   10   38 1
  24   11   12 1
  25   11   39 1
  26   11   40 1
  27   12   13 1
  28   12   41 1
  29   12   42 1
  30   13   43 1
  31   13   44 1
  32   14   15 2
  33   14   16 am
  34   16   18 1
  35   16   45 1
  36   17   27 1
  37   17   46 1
  38   17   47 1
  39   18   23 1
  40   18   19 1
  41   18   48 1
  42   19   21 am
  43   19   22 2
  44   20   23 1
  45   20   49 1
  46   20   50 1
  47   20   51 1
  48   21   26 1
  49   21   52 1
  50   23   24 1
  51   23   25 1
  52   24   53 1
  53   24   54 1
  54   24   55 1
  55   25   56 1
  56   25   57 1
  57   25   58 1
  58   26   59 1
  59   26   60 1
  60   26   61 1
  61   27   28 1
  62   27   62 1
  63   27   63 1
  64   28   29 1
  65   29   30 1
  66   29   64 1
  67   29   65 1
  68   30   66 1
  69   30   67 1

#	End of record

