#	Name: ASD03331301
#	Creating user name:	WinNT
#	Creation time:	15. 06. 2019 20:38

#	Modifying user name:	WinNT
#	Modification time:	15. 06. 2019 20:38

#	Program:	/corina/corina34_cracker 3.40 0067  02.08.2006

@<TRIPOS>MOLECULE
ASD03331301
  50   52    0    0    0
SMALL
NO_CHARGES


@<TRIPOS>ATOM
   1 N1             0.1506     1.1387     0.3808 N.2     
   2 N2             0.0886    -0.2639     0.3792 N.am    
   3 C3             1.3385    -0.7340     0.5992 C.2     
   4 C4             2.1670     0.3301     0.7380 C.2     
   5 C5             1.4007     1.4967     0.5964 C.2     
   6 C6             3.6460     0.1945     1.0002 C.3     
   7 C7             1.8174    -2.1621     0.6879 C.3     
   8 C8             3.3470    -2.1514     0.5505 C.3     
   9 O9             3.9001    -1.1549     1.4144 O.3     
  10 C10           -1.0185    -1.0095     0.1926 C.2     
  11 O11           -0.9450    -2.2221     0.2137 O.2     
  12 N12           -2.2072    -0.4099    -0.0173 N.am    
  13 C13            1.9083     2.8885     0.6747 C.ar    
  14 C14            1.2354     3.8365     1.4471 C.ar    
  15 C15            1.7122     5.1318     1.5174 C.ar    
  16 C16            2.8557     5.4895     0.8231 C.ar    
  17 C17            3.5277     4.5504     0.0541 C.ar    
  18 C18            3.0613     3.2518    -0.0179 C.ar    
  19 F19            4.6426     4.9050    -0.6216 F       
  20 F20            3.3180     6.7569     0.8944 F       
  21 F21            0.1195     3.4886     2.1245 F       
  22 C22           -4.4370    -0.4175    -1.0221 C.3     
  23 C23           -3.4107    -1.2203    -0.2201 C.3     
  24 C24           -4.0064    -1.5975     1.1377 C.3     
  25 C25           -5.3470    -2.3043     0.9279 C.3     
  26 C26           -3.0459    -2.5337     1.8737 C.3     
  27 C27           -4.2220    -0.3315     1.9694 C.3     
  28 O28           -4.8212     0.7412    -0.2792 O.3     
  29 H29            4.2032     0.4113     0.0888 H       
  30 H30            3.9453     0.8846     1.7890 H       
  31 H31            1.5360    -2.5870     1.6515 H       
  32 H32            1.3781    -2.7498    -0.1182 H       
  33 H33            3.7428    -3.1293     0.8244 H       
  34 H34            3.6170    -1.9273    -0.4815 H       
  35 H35           -2.2659     0.5581    -0.0341 H       
  36 H36            1.1920     5.8662     2.1145 H       
  37 H37            3.5876     2.5203    -0.6132 H       
  38 H38           -3.9973    -0.1113    -1.9713 H       
  39 H39           -5.3147    -1.0357    -1.2108 H       
  40 H40           -3.1505    -2.1266    -0.7671 H       
  41 H41           -5.1934    -3.2062     0.3354 H       
  42 H42           -5.7714    -2.5730     1.8953 H       
  43 H43           -6.0313    -1.6373     0.4035 H       
  44 H44           -2.0908    -2.0302     2.0232 H       
  45 H45           -3.4703    -2.8024     2.8411 H       
  46 H46           -2.8923    -3.4357     1.2812 H       
  47 H47           -5.0460     0.2442     1.5478 H       
  48 H48           -4.4598    -0.6077     2.9966 H       
  49 H49           -3.3137     0.2710     1.9561 H       
  50 H50           -5.4714     1.2985    -0.7283 H       
@<TRIPOS>BOND
   1    1    2 1
   2    1    5 2
   3    2    3 1
   4    2   10 am
   5    3    4 2
   6    3    7 1
   7    4    5 1
   8    4    6 1
   9    5   13 1
  10    6    9 1
  11    6   29 1
  12    6   30 1
  13    7    8 1
  14    7   31 1
  15    7   32 1
  16    8    9 1
  17    8   33 1
  18    8   34 1
  19   10   11 2
  20   10   12 am
  21   12   23 1
  22   12   35 1
  23   13   14 ar
  24   13   18 ar
  25   14   15 ar
  26   14   21 1
  27   15   16 ar
  28   15   36 1
  29   16   17 ar
  30   16   20 1
  31   17   18 ar
  32   17   19 1
  33   18   37 1
  34   22   28 1
  35   22   23 1
  36   22   38 1
  37   22   39 1
  38   23   24 1
  39   23   40 1
  40   24   25 1
  41   24   26 1
  42   24   27 1
  43   25   41 1
  44   25   42 1
  45   25   43 1
  46   26   44 1
  47   26   45 1
  48   26   46 1
  49   27   47 1
  50   27   48 1
  51   27   49 1
  52   28   50 1

#	End of record

