#	Name: ASD01209086
#	Creating user name:	WinNT
#	Creation time:	15. 06. 2019 19:10

#	Modifying user name:	WinNT
#	Modification time:	15. 06. 2019 19:10

#	Program:	/corina/corina34_cracker 3.40 0067  02.08.2006

@<TRIPOS>MOLECULE
ASD01209086
  66   68    0    0    0
SMALL
NO_CHARGES


@<TRIPOS>ATOM
   1 C1             0.6219    -1.3900     1.3556 C.3     
   2 C2             1.9264    -1.3116    -3.7623 C.ar    
   3 S3            -0.5621    -1.0876     0.0150 S.o2    
   4 O4            -1.4726    -2.1725    -0.1003 O.2     
   5 O5            -1.0240     0.2557     0.0512 O.2     
   6 N6             2.6956    -1.3809    -4.9292 N.am    
   7 C7             4.0233    -1.1555    -4.8755 C.2     
   8 N8             4.7803    -1.3221    -5.9781 N.am    
   9 O9             4.5381    -0.8018    -3.8324 O.2     
  10 C10            2.0578    -1.6985    -6.2093 C.3     
  11 C11            1.7375    -0.4016    -6.9551 C.3     
  12 C12            1.1843    -0.7214    -8.3549 C.3     
  13 C13           -0.2379    -0.1266    -8.4133 C.3     
  14 C14           -0.2250     0.9942    -7.3443 C.3     
  15 C15            0.6321     0.3764    -6.2117 C.3     
  16 C16            1.3265    -2.4569    -3.2553 C.ar    
  17 C17            0.5679    -2.3851    -2.1034 C.ar    
  18 C18            0.4061    -1.1748    -1.4546 C.ar    
  19 C19            1.0021    -0.0326    -1.9569 C.ar    
  20 C20            1.7659    -0.0985    -3.1057 C.ar    
  21 C21            6.1655    -1.1885    -5.8991 C.ar    
  22 C22            6.9300    -1.2452    -7.0587 C.ar    
  23 P23           10.6644    -0.7433    -5.5323 P.3     
  24 O24           11.3295    -2.0039    -5.9310 O.2     
  25 O25           11.0197    -0.4112    -3.9975 O.3     
  26 O26           11.1797     0.4565    -6.4742 O.3     
  27 C27           12.3603    -0.3136    -3.5126 C.3     
  28 C28           12.3395     0.0121    -2.0178 C.3     
  29 C29           12.5621     0.7806    -6.6355 C.3     
  30 C30           12.6996     1.9655    -7.5935 C.3     
  31 C31            8.3043    -1.1111    -6.9661 C.ar    
  32 C32            8.8684    -0.9243    -5.7117 C.ar    
  33 C33            8.0482    -0.8780    -4.6016 C.ar    
  34 N34            6.7404    -1.0035    -4.7212 N.ar    
  35 H35            1.0756    -2.3724     1.2250 H       
  36 H36            1.3984    -0.6253     1.3340 H       
  37 H37            0.1031    -1.3539     2.3136 H       
  38 H38            4.3611    -1.5350    -6.8265 H       
  39 H39            2.7335    -2.3063    -6.8110 H       
  40 H40            1.1357    -2.2509    -6.0286 H       
  41 H41            2.6346     0.2118    -7.0393 H       
  42 H42            1.8125    -0.2625    -9.1184 H       
  43 H43            1.1441    -1.8005    -8.5029 H       
  44 H44           -0.4369     0.2902    -9.4006 H       
  45 H45           -0.9792    -0.8851    -8.1619 H       
  46 H46            0.2448     1.8963    -7.7360 H       
  47 H47           -1.2352     1.2047    -6.9932 H       
  48 H48            0.0313    -0.3009    -5.6047 H       
  49 H49            1.0680     1.1603    -5.5923 H       
  50 H50            1.4525    -3.4025    -3.7616 H       
  51 H51            0.1012    -3.2755    -1.7086 H       
  52 H52            0.8733     0.9114    -1.4482 H       
  53 H53            2.2314     0.7939    -3.4974 H       
  54 H54            6.4579    -1.3922    -8.0188 H       
  55 H55           12.8739    -1.2619    -3.6707 H       
  56 H56           12.8842     0.4773    -4.0494 H       
  57 H57           13.3621     0.0866    -1.6478 H       
  58 H58           11.8259     0.9604    -1.8596 H       
  59 H59           11.8156    -0.7787    -1.4809 H       
  60 H60           12.9888     1.0443    -5.6678 H       
  61 H61           13.0918    -0.0801    -7.0438 H       
  62 H62           12.2729     1.7018    -8.5613 H       
  63 H63           12.1699     2.8262    -7.1853 H       
  64 H64           13.7541     2.2127    -7.7166 H       
  65 H65            8.9238    -1.1513    -7.8498 H       
  66 H66            8.4826    -0.7331    -3.6235 H       
@<TRIPOS>BOND
   1    1    3 1
   2    1   35 1
   3    1   36 1
   4    1   37 1
   5    2    6 1
   6    2   16 ar
   7    2   20 ar
   8    3    4 2
   9    3    5 2
  10    3   18 1
  11    6    7 am
  12    6   10 1
  13    7    8 am
  14    7    9 2
  15    8   21 1
  16    8   38 1
  17   10   11 1
  18   10   39 1
  19   10   40 1
  20   11   12 1
  21   11   15 1
  22   11   41 1
  23   12   13 1
  24   12   42 1
  25   12   43 1
  26   13   14 1
  27   13   44 1
  28   13   45 1
  29   14   15 1
  30   14   46 1
  31   14   47 1
  32   15   48 1
  33   15   49 1
  34   16   17 ar
  35   16   50 1
  36   17   18 ar
  37   17   51 1
  38   18   19 ar
  39   19   20 ar
  40   19   52 1
  41   20   53 1
  42   21   22 ar
  43   21   34 ar
  44   22   31 ar
  45   22   54 1
  46   23   24 2
  47   23   25 1
  48   23   26 1
  49   23   32 1
  50   25   27 1
  51   26   29 1
  52   27   28 1
  53   27   55 1
  54   27   56 1
  55   28   57 1
  56   28   58 1
  57   28   59 1
  58   29   30 1
  59   29   60 1
  60   29   61 1
  61   30   62 1
  62   30   63 1
  63   30   64 1
  64   31   32 ar
  65   31   65 1
  66   32   33 ar
  67   33   34 ar
  68   33   66 1

#	End of record

