#	Name: ASD01880206
#	Creating user name:	WinNT
#	Creation time:	15. 06. 2019 19:40

#	Modifying user name:	WinNT
#	Modification time:	15. 06. 2019 19:40

#	Program:	/corina/corina34_cracker 3.40 0067  02.08.2006

@<TRIPOS>MOLECULE
ASD01880206
  47   51    0    0    0
SMALL
NO_CHARGES


@<TRIPOS>ATOM
   1 C1             0.2590     1.4871    -0.0101 C.2     
   2 C2             0.0202    -0.0005     0.0226 C.3     
   3 N3             0.1835    -0.4926     1.3971 N.3     
   4 C4            -0.1392    -1.9400     1.4863 C.3     
   5 C5            -0.4515    -2.1776     2.9794 C.3     
   6 C6            -0.8793    -0.7991     3.5237 C.3     
   7 C7            -0.7895     0.1555     2.3137 C.3     
   8 C8            -1.8856    -1.9499     3.4615 C.3     
   9 H9            -0.5287    -0.4281     4.4868 H       
  10 H10            0.2175    -2.8328     3.5373 H       
  11 C11           -2.2964    -2.5997     4.7843 C.3     
  12 O12           -3.6895    -2.3769     5.0120 O.3     
  13 C13           -4.2184    -2.8930     6.1525 C.ar    
  14 C14           -5.5641    -2.7144     6.4367 C.ar    
  15 C15           -6.0999    -3.2409     7.5977 C.ar    
  16 C16           -5.2942    -3.9452     8.4748 C.ar    
  17 C17           -3.9524    -4.1236     8.1929 C.ar    
  18 C18           -3.4142    -3.6043     7.0316 C.ar    
  19 N19           -0.6749     2.3934     0.0326 N.2     
  20 C20           -0.1168     3.6292    -0.0146 C.ar    
  21 C21            1.2746     3.4422    -0.0925 C.ar    
  22 N22            1.4805     2.0779    -0.0826 N.pl3   
  23 N23           -0.6220     4.8606    -0.0005 N.ar    
  24 C24            0.1521     5.9222    -0.0581 C.ar    
  25 C25            1.5314     5.8074    -0.1366 C.ar    
  26 C26            2.1100     4.5502    -0.1537 C.ar    
  27 C27            2.7744     1.3938    -0.1469 C.3     
  28 Cl28          -7.7839    -3.0177     7.9551 Cl      
  29 H29           -0.9917    -0.2138    -0.3218 H       
  30 H30            0.7383    -0.4982    -0.6292 H       
  31 H31           -1.0100    -2.1737     0.8739 H       
  32 H32            0.7165    -2.5400     1.1767 H       
  33 H33           -0.4234     1.1332     2.6272 H       
  34 H34           -1.7621     0.2497     1.8308 H       
  35 H35           -2.6672    -1.8933     2.7038 H       
  36 H36           -2.1026    -3.6713     4.7383 H       
  37 H37           -1.7204    -2.1609     5.5990 H       
  38 H38           -6.1928    -2.1643     5.7522 H       
  39 H39           -5.7140    -4.3559     9.3812 H       
  40 H40           -3.3254    -4.6731     8.8794 H       
  41 H41           -2.3660    -3.7441     6.8123 H       
  42 H42           -0.2964     6.9046    -0.0442 H       
  43 H43            2.1494     6.6919    -0.1836 H       
  44 H44            3.1820     4.4339    -0.2142 H       
  45 H45            3.1928     1.3127     0.8564 H       
  46 H46            2.6377     0.3966    -0.5652 H       
  47 H47            3.4554     1.9630    -0.7796 H       
@<TRIPOS>BOND
   1    1    2 1
   2    1   19 2
   3    1   22 1
   4    2    3 1
   5    2   29 1
   6    2   30 1
   7    3    4 1
   8    3    7 1
   9    4    5 1
  10    4   31 1
  11    4   32 1
  12    5    6 1
  13    5   10 1
  14    5    8 1
  15    6    7 1
  16    6    9 1
  17    6    8 1
  18    7   33 1
  19    7   34 1
  20    8   11 1
  21    8   35 1
  22   11   12 1
  23   11   36 1
  24   11   37 1
  25   12   13 1
  26   13   14 ar
  27   13   18 ar
  28   14   15 ar
  29   14   38 1
  30   15   16 ar
  31   15   28 1
  32   16   17 ar
  33   16   39 1
  34   17   18 ar
  35   17   40 1
  36   18   41 1
  37   19   20 1
  38   20   21 ar
  39   20   23 ar
  40   21   22 1
  41   21   26 ar
  42   22   27 1
  43   23   24 ar
  44   24   25 ar
  45   24   42 1
  46   25   26 ar
  47   25   43 1
  48   26   44 1
  49   27   45 1
  50   27   46 1
  51   27   47 1

#	End of record

