#	Name: ASD01230831
#	Creating user name:	WinNT
#	Creation time:	15. 06. 2019 19:15

#	Modifying user name:	WinNT
#	Modification time:	15. 06. 2019 19:15

#	Program:	/corina/corina34_cracker 3.40 0067  02.08.2006

@<TRIPOS>MOLECULE
ASD01230831
  49   52    0    0    0
SMALL
NO_CHARGES


@<TRIPOS>ATOM
   1 C1             0.9974    -0.1177    -0.6753 C.3     
   2 C2             1.4227    -1.5085    -0.1967 C.3     
   3 C3             0.3047    -2.5234    -0.3891 C.3     
   4 C4            -1.0788    -1.8903    -0.3379 C.3     
   5 N5            -1.0810    -0.6806     0.4878 N.pl3   
   6 C6            -0.1828     0.3085     0.1810 C.2     
   7 C7            -1.9914    -0.5560     1.6233 C.3     
   8 C8            -2.7627     0.7605     1.5163 C.3     
   9 S9            -1.5893     2.1337     1.3710 S.o2    
  10 N10           -0.3068     1.5273     0.5346 N.am    
  11 C11            2.1352     0.8551    -0.5023 C.ar    
  12 O12           -2.1120     3.1445     0.5199 O.2     
  13 O13           -1.0497     2.4616     2.6440 O.2     
  14 C14            2.6532     1.5140    -1.6021 C.ar    
  15 C15            3.6958     2.4066    -1.4463 C.ar    
  16 C16            4.2235     2.6417    -0.1847 C.ar    
  17 C17            3.7019     1.9792     0.9174 C.ar    
  18 C18            2.6557     1.0916     0.7567 C.ar    
  19 O19            5.2495     3.5189    -0.0287 O.3     
  20 C20            5.6569     4.2246    -1.1171 C.ar    
  21 C21            5.0634     5.4422    -1.4164 C.ar    
  22 C22            5.4774     6.1590    -2.5220 C.ar    
  23 C23            6.4862     5.6612    -3.3334 C.ar    
  24 C24            7.0798     4.4438    -3.0342 C.ar    
  25 C25            6.6702     3.7298    -1.9251 C.ar    
  26 O26            6.8931     6.3665    -4.4224 O.3     
  27 C27            7.9367     5.7941    -5.2133 C.3     
  28 F28            7.5218     4.5514    -5.7038 F       
  29 F29            8.2294     6.6444    -6.2850 F       
  30 F30            9.0804     5.6263    -4.4253 F       
  31 H31            0.7013    -0.1600    -1.7235 H       
  32 H32            2.2973    -1.8290    -0.7627 H       
  33 H33            1.6816    -1.4586     0.8609 H       
  34 H34            0.4335    -3.0099    -1.3559 H       
  35 H35            0.3756    -3.2779     0.3944 H       
  36 H36           -1.3907    -1.6321    -1.3500 H       
  37 H37           -1.7846    -2.6084     0.0795 H       
  38 H38           -2.6935    -1.3898     1.6192 H       
  39 H39           -1.4191    -0.5675     2.5508 H       
  40 H40           -3.4043     0.7356     0.6355 H       
  41 H41           -3.3741     0.8973     2.4083 H       
  42 H42            2.2423     1.3303    -2.5839 H       
  43 H43            4.1002     2.9207    -2.3057 H       
  44 H44            4.1110     2.1602     1.9003 H       
  45 H45            2.2494     0.5757     1.6141 H       
  46 H46            4.2774     5.8295    -0.7850 H       
  47 H47            5.0153     7.1069    -2.7551 H       
  48 H48            7.8653     4.0563    -3.6661 H       
  49 H49            7.1326     2.7820    -1.6920 H       
@<TRIPOS>BOND
   1    1    2 1
   2    1   11 1
   3    1    6 1
   4    1   31 1
   5    2    3 1
   6    2   32 1
   7    2   33 1
   8    3    4 1
   9    3   34 1
  10    3   35 1
  11    4    5 1
  12    4   36 1
  13    4   37 1
  14    5    6 1
  15    5    7 1
  16    6   10 2
  17    7    8 1
  18    7   38 1
  19    7   39 1
  20    8    9 1
  21    8   40 1
  22    8   41 1
  23    9   10 am
  24    9   12 2
  25    9   13 2
  26   11   14 ar
  27   11   18 ar
  28   14   15 ar
  29   14   42 1
  30   15   16 ar
  31   15   43 1
  32   16   17 ar
  33   16   19 1
  34   17   18 ar
  35   17   44 1
  36   18   45 1
  37   19   20 1
  38   20   21 ar
  39   20   25 ar
  40   21   22 ar
  41   21   46 1
  42   22   23 ar
  43   22   47 1
  44   23   24 ar
  45   23   26 1
  46   24   25 ar
  47   24   48 1
  48   25   49 1
  49   26   27 1
  50   27   28 1
  51   27   29 1
  52   27   30 1

#	End of record

