#	Name: ASD03540197
#	Creating user name:	WinNT
#	Creation time:	15. 06. 2019 20:42

#	Modifying user name:	WinNT
#	Modification time:	15. 06. 2019 20:42

#	Program:	/corina/corina34_cracker 3.40 0067  02.08.2006

@<TRIPOS>MOLECULE
ASD03540197
  65   68    0    0    0
SMALL
NO_CHARGES


@<TRIPOS>ATOM
   1 C1             7.5922    -9.1741    -1.8927 C.2     
   2 C2             6.5770    -9.5919    -2.9252 C.3     
   3 C3             6.3026    -8.4225    -3.8729 C.3     
   4 O4             7.3057    -9.1992    -0.7192 O.2     
   5 O5             8.8164    -8.7795    -2.2765 O.3     
   6 C6             7.1203   -10.7786    -3.7236 C.3     
   7 O7             5.3634    -9.9718    -2.2735 O.3     
   8 C8             4.7357    -9.0195    -1.5345 C.ar    
   9 C9             3.4927    -9.2804    -0.9763 C.ar    
  10 C10            2.8567    -8.3107    -0.2256 C.ar    
  11 C11            3.4578    -7.0810    -0.0304 C.ar    
  12 C12            4.6964    -6.8184    -0.5860 C.ar    
  13 C13            5.3393    -7.7869    -1.3324 C.ar    
  14 C14            2.7617    -6.0250     0.7890 C.3     
  15 C15            0.7849    -6.4853     2.1187 C.2     
  16 N16            0.1310    -7.0356     3.1516 N.am    
  17 C17            0.7898    -7.8098     4.0902 C.2     
  18 C18            2.1572    -8.0180     3.9547 C.2     
  19 C19            2.8333    -7.3888     2.7980 C.2     
  20 N20            2.1049    -6.6528     1.9382 N.am    
  21 C21            2.6911    -8.8155     4.9695 C.2     
  22 C22            1.7924    -9.2288     5.8786 C.2     
  23 S23            0.1995    -8.6118     5.4782 S.3     
  24 O24            4.0291    -7.5352     2.6267 O.2     
  25 O25            0.1617    -5.8169     1.3167 O.2     
  26 C26            3.7884    -5.0041     1.2835 C.3     
  27 C27            2.0982   -10.0723     7.0364 C.2     
  28 N28            1.1166   -10.4291     7.8883 N.am    
  29 O29            3.2388   -10.4511     7.2292 O.2     
  30 C30            1.4224   -11.2727     9.0463 C.3     
  31 C31            0.1612   -11.5239     9.8319 C.ar    
  32 C32           -0.6304   -12.6169     9.5357 C.ar    
  33 C33           -1.7912   -12.8475    10.2592 C.ar    
  34 C34           -2.1544   -11.9794    11.2789 C.ar    
  35 C35           -1.3596   -10.8881    11.5711 C.ar    
  36 C36           -0.1999   -10.6636    10.8521 C.ar    
  37 O37           -2.5717   -13.9216     9.9695 O.3     
  38 C38           -3.7522   -14.0966    10.7556 C.3     
  39 H39            7.2483    -7.9960    -4.2071 H       
  40 H40            5.7394    -8.7784    -4.7356 H       
  41 H41            5.7244    -7.6599    -3.3511 H       
  42 H42            9.4333    -8.5209    -1.5782 H       
  43 H43            7.3979   -11.5803    -3.0392 H       
  44 H44            6.3530   -11.1364    -4.4101 H       
  45 H45            7.9969   -10.4646    -4.2901 H       
  46 H46            3.0225   -10.2407    -1.1288 H       
  47 H47            1.8889    -8.5132     0.2089 H       
  48 H48            5.1636    -5.8568    -0.4326 H       
  49 H49            6.3089    -7.5830    -1.7621 H       
  50 H50            2.0156    -5.5215     0.1744 H       
  51 H51           -0.8233    -6.8878     3.2430 H       
  52 H52            3.7375    -9.0780     5.0189 H       
  53 H53            4.5346    -5.5076     1.8981 H       
  54 H54            4.2772    -4.5370     0.4285 H       
  55 H55            3.2850    -4.2403     1.8761 H       
  56 H56            0.2077   -10.1272     7.7347 H       
  57 H57            1.8333   -12.2230     8.7052 H       
  58 H58            2.1514   -10.7686     9.6808 H       
  59 H59           -0.3458   -13.2909     8.7413 H       
  60 H60           -3.0579   -12.1566    11.8434 H       
  61 H61           -1.6420   -10.2120    12.3645 H       
  62 H62            0.4227    -9.8125    11.0852 H       
  63 H63           -3.4771   -14.2088    11.8043 H       
  64 H64           -4.3978   -13.2259    10.6404 H       
  65 H65           -4.2822   -14.9886    10.4215 H       
@<TRIPOS>BOND
   1    1    2 1
   2    1    4 2
   3    1    5 1
   4    2    3 1
   5    2    6 1
   6    2    7 1
   7    3   39 1
   8    3   40 1
   9    3   41 1
  10    5   42 1
  11    6   43 1
  12    6   44 1
  13    6   45 1
  14    7    8 1
  15    8    9 ar
  16    8   13 ar
  17    9   10 ar
  18    9   46 1
  19   10   11 ar
  20   10   47 1
  21   11   12 ar
  22   11   14 1
  23   12   13 ar
  24   12   48 1
  25   13   49 1
  26   14   20 1
  27   14   26 1
  28   14   50 1
  29   15   16 am
  30   15   20 am
  31   15   25 2
  32   16   17 1
  33   16   51 1
  34   17   18 2
  35   17   23 1
  36   18   19 1
  37   18   21 1
  38   19   20 am
  39   19   24 2
  40   21   22 2
  41   21   52 1
  42   22   23 1
  43   22   27 1
  44   26   53 1
  45   26   54 1
  46   26   55 1
  47   27   28 am
  48   27   29 2
  49   28   30 1
  50   28   56 1
  51   30   31 1
  52   30   57 1
  53   30   58 1
  54   31   32 ar
  55   31   36 ar
  56   32   33 ar
  57   32   59 1
  58   33   34 ar
  59   33   37 1
  60   34   35 ar
  61   34   60 1
  62   35   36 ar
  63   35   61 1
  64   36   62 1
  65   37   38 1
  66   38   63 1
  67   38   64 1
  68   38   65 1

#	End of record

