#	Name: ASD00122057
#	Creating user name:	WinNT
#	Creation time:	15. 06. 2019 18:31

#	Modifying user name:	WinNT
#	Modification time:	15. 06. 2019 18:31

#	Program:	/corina/corina34_cracker 3.40 0067  02.08.2006

@<TRIPOS>MOLECULE
ASD00122057
  38   38    0    0    0
SMALL
NO_CHARGES


@<TRIPOS>ATOM
   1 C1            -0.0167     1.3772     0.0096 C.ar    
   2 C2             0.0021    -0.0041     0.0020 C.ar    
   3 C3             1.2080    -0.6802    -0.0131 C.ar    
   4 C4             2.3980     0.0239    -0.0207 C.ar    
   5 C5             2.3846     1.4052    -0.0127 C.ar    
   6 C6             1.1759     2.0860     0.0020 C.ar    
   7 O7             1.1601     3.4449     0.0095 O.3     
   8 C8            -0.1205     4.0787     0.0246 C.3     
   9 C9             1.2256    -2.1871    -0.0209 C.3     
  10 C10            1.2176    -2.6822    -1.4442 C.2     
  11 N11            1.2306    -4.0059    -1.6973 N.am    
  12 O12            1.1994    -1.8895    -2.3619 O.2     
  13 C13            1.2228    -4.4873    -3.0809 C.3     
  14 C14            2.6551    -4.5193    -3.6178 C.3     
  15 C15            0.6291    -5.8966    -3.1273 C.3     
  16 C16           -0.8416    -5.8445    -2.7086 C.3     
  17 C17            3.2054    -3.0935    -3.6884 C.3     
  18 H18           -0.9589     1.9049     0.0169 H       
  19 H19           -0.9260    -0.5563     0.0083 H       
  20 H20            3.3387    -0.5065    -0.0325 H       
  21 H21            3.3144     1.9547    -0.0179 H       
  22 H22           -0.6822     3.7842    -0.8618 H       
  23 H23           -0.6659     3.7746     0.9180 H       
  24 H24            0.0097     5.1609     0.0292 H       
  25 H25            2.1247    -2.5426     0.4824 H       
  26 H26            0.3449    -2.5634     0.4997 H       
  27 H27            1.2451    -4.6399    -0.9633 H       
  28 H28            0.6195    -3.8185    -3.6949 H       
  29 H29            3.2790    -5.1170    -2.9532 H       
  30 H30            2.6597    -4.9603    -4.6146 H       
  31 H31            0.7045    -6.2895    -4.1413 H       
  32 H32            1.1784    -6.5449    -2.4447 H       
  33 H33           -1.2646    -6.8486    -2.7416 H       
  34 H34           -0.9170    -5.4517    -1.6947 H       
  35 H35           -1.3910    -5.1962    -3.3912 H       
  36 H36            2.5815    -2.4958    -4.3530 H       
  37 H37            3.2008    -2.6525    -2.6916 H       
  38 H38            4.2258    -3.1163    -4.0709 H       
@<TRIPOS>BOND
   1    1    2 ar
   2    1    6 ar
   3    1   18 1
   4    2    3 ar
   5    2   19 1
   6    3    4 ar
   7    3    9 1
   8    4    5 ar
   9    4   20 1
  10    5    6 ar
  11    5   21 1
  12    6    7 1
  13    7    8 1
  14    8   22 1
  15    8   23 1
  16    8   24 1
  17    9   10 1
  18    9   25 1
  19    9   26 1
  20   10   11 am
  21   10   12 2
  22   11   13 1
  23   11   27 1
  24   13   14 1
  25   13   15 1
  26   13   28 1
  27   14   17 1
  28   14   29 1
  29   14   30 1
  30   15   16 1
  31   15   31 1
  32   15   32 1
  33   16   33 1
  34   16   34 1
  35   16   35 1
  36   17   36 1
  37   17   37 1
  38   17   38 1

#	End of record

