#	Name: ASD09740524
#	Creating user name:	WinNT
#	Creation time:	15. 06. 2019 21:23

#	Modifying user name:	WinNT
#	Modification time:	15. 06. 2019 21:23

#	Program:	/corina/corina34_cracker 3.40 0067  02.08.2006

@<TRIPOS>MOLECULE
ASD09740524
  62   66    0    0    0
SMALL
NO_CHARGES


@<TRIPOS>ATOM
   1 N1             0.6897     2.0755     1.3953 N.2     
   2 C2             0.5258     0.7779     1.4644 C.2     
   3 C3             1.8802     2.5401     1.6525 C.2     
   4 S4             2.9567     1.1991     2.0343 S.3     
   5 C5             1.6256     0.0681     1.7986 C.2     
   6 C6             2.2659     3.9662     1.6269 C.ar    
   7 C7             1.3202     4.9379     1.3087 C.ar    
   8 C8             3.5789     4.3408     1.9278 C.ar    
   9 C9             3.9440     5.6696     1.9059 C.ar    
  10 C10            3.0114     6.6456     1.5856 C.ar    
  11 C11            1.6896     6.2818     1.2866 C.ar    
  12 O12            3.3761     7.9521     1.5664 O.3     
  13 C13            4.7611     8.2420     1.7656 C.3     
  14 C14            5.1006     9.5832     1.1122 C.3     
  15 C15            5.0562     8.3160     3.2651 C.3     
  16 C16            0.7250     7.2869     0.9552 C.1     
  17 N17           -0.0402     8.0843     0.6923 N.1     
  18 C18            1.6997    -1.4011     1.9415 C.ar    
  19 C19            2.7117    -2.1170     1.2954 C.ar    
  20 C20            2.7753    -3.4884     1.4329 C.ar    
  21 C21            1.8373    -4.1499     2.2101 C.ar    
  22 C22            0.8342    -3.4464     2.8509 C.ar    
  23 C23            0.7631    -2.0746     2.7261 C.ar    
  24 C24            3.8374    -1.6376     0.4045 C.3     
  25 C25            4.8476    -2.8040     0.3679 C.3     
  26 C26            3.9489    -4.0281     0.6432 C.3     
  27 N27            4.6783    -5.0285     1.4338 N.3     
  28 C28            5.4630    -5.9160     0.5650 C.3     
  29 C29            6.6559    -6.4747     1.3468 C.3     
  30 C30            7.4222    -7.4586     0.4588 C.3     
  31 O31            6.5403    -8.4983     0.0306 O.3     
  32 C32            5.4314    -8.0400    -0.7454 C.3     
  33 C33            4.5850    -7.0795     0.0942 C.3     
  34 H34           -0.4258     0.3065     1.2677 H       
  35 H35            0.3044     4.6512     1.0795 H       
  36 H36            4.3096     3.5861     2.1786 H       
  37 H37            4.9599     5.9523     2.1393 H       
  38 H38            5.3656     7.4549     1.3148 H       
  39 H39            4.4962    10.3703     1.5630 H       
  40 H40            6.1571     9.8043     1.2642 H       
  41 H41            4.8904     9.5305     0.0440 H       
  42 H42            4.8143     7.3606     3.7306 H       
  43 H43            6.1126     8.5372     3.4170 H       
  44 H44            4.4517     9.1031     3.7159 H       
  45 H45            1.8902    -5.2234     2.3156 H       
  46 H46            0.1079    -3.9714     3.4537 H       
  47 H47           -0.0201    -1.5248     3.2268 H       
  48 H48            3.4637    -1.4292    -0.5981 H       
  49 H49            4.3024    -0.7475     0.8283 H       
  50 H50            5.3163    -2.8801    -0.6133 H       
  51 H51            5.5987    -2.6909     1.1497 H       
  52 H52            3.6051    -4.4637    -0.2950 H       
  53 H53            5.2663    -4.5855     2.1238 H       
  54 H54            5.8227    -5.3563    -0.2983 H       
  55 H55            7.3154    -5.6574     1.6384 H       
  56 H56            6.2980    -6.9908     2.2377 H       
  57 H57            7.8143    -6.9329    -0.4119 H       
  58 H58            8.2474    -7.8917     1.0242 H       
  59 H59            5.7974    -7.5220    -1.6319 H       
  60 H60            4.8223    -8.8919    -1.0476 H       
  61 H61            4.1853    -7.6078     0.9598 H       
  62 H62            3.7635    -6.6946    -0.5101 H       
@<TRIPOS>BOND
   1    1    2 1
   2    1    3 2
   3    2    5 2
   4    2   34 1
   5    3    4 1
   6    3    6 1
   7    4    5 1
   8    5   18 1
   9    6    7 ar
  10    6    8 ar
  11    7   11 ar
  12    7   35 1
  13    8    9 ar
  14    8   36 1
  15    9   10 ar
  16    9   37 1
  17   10   11 ar
  18   10   12 1
  19   11   16 1
  20   12   13 1
  21   13   14 1
  22   13   15 1
  23   13   38 1
  24   14   39 1
  25   14   40 1
  26   14   41 1
  27   15   42 1
  28   15   43 1
  29   15   44 1
  30   16   17 3
  31   18   19 ar
  32   18   23 ar
  33   19   20 ar
  34   19   24 1
  35   20   21 ar
  36   20   26 1
  37   21   22 ar
  38   21   45 1
  39   22   23 ar
  40   22   46 1
  41   23   47 1
  42   24   25 1
  43   24   48 1
  44   24   49 1
  45   25   26 1
  46   25   50 1
  47   25   51 1
  48   26   27 1
  49   26   52 1
  50   27   28 1
  51   27   53 1
  52   28   29 1
  53   28   33 1
  54   28   54 1
  55   29   30 1
  56   29   55 1
  57   29   56 1
  58   30   31 1
  59   30   57 1
  60   30   58 1
  61   31   32 1
  62   32   33 1
  63   32   59 1
  64   32   60 1
  65   33   61 1
  66   33   62 1

#	End of record

