#	Name: ASD01881907
#	Creating user name:	WinNT
#	Creation time:	15. 06. 2019 19:43

#	Modifying user name:	WinNT
#	Modification time:	15. 06. 2019 19:43

#	Program:	/corina/corina34_cracker 3.40 0067  02.08.2006

@<TRIPOS>MOLECULE
ASD01881907
  47   50    0    0    0
SMALL
NO_CHARGES


@<TRIPOS>ATOM
   1 C1            -0.0161     1.3337     0.0094 C.2     
   2 N2             0.0021    -0.0041     0.0020 N.am    
   3 C3             1.2613    -0.4841    -0.0126 C.2     
   4 C4             2.1640     0.7337    -0.0147 C.3     
   5 N5             1.2200     1.8645     0.0004 N.am    
   6 O6            -1.0354     1.9955     0.0180 O.2     
   7 O7             1.6013    -1.6477    -0.0215 O.2     
   8 C8             1.5609     3.2893     0.0041 C.3     
   9 C9             2.9136     3.7162     2.0724 C.ar    
  10 C10            1.6916     3.7708     1.4261 C.ar    
  11 C11            0.5879     4.2736     2.0994 C.ar    
  12 C12            0.7505     4.7061     3.4047 C.ar    
  13 C13            2.0102     4.6219     3.9936 C.ar    
  14 N14            3.0409     4.1343     3.3147 N.ar    
  15 C15            3.0394     6.3158     9.3495 C.2     
  16 N16            4.3513     6.0475     9.4640 N.am    
  17 C17            4.8288     5.4770     8.1993 C.3     
  18 C18            3.6332     5.4269     7.2809 C.ar    
  19 C19            3.4604     4.9999     5.9871 C.ar    
  20 C20            2.2010     5.0814     5.3906 C.ar    
  21 C21            1.1222     5.5960     6.1101 C.ar    
  22 C22            1.2958     6.0243     7.4068 C.ar    
  23 C23            2.5557     5.9438     8.0063 C.ar    
  24 C24            5.1700     6.2858    10.6553 C.3     
  25 C25            5.1429     5.0446    11.5494 C.3     
  26 F26            5.6540     3.9502    10.8436 F       
  27 F27            5.9247     5.2722    12.6870 F       
  28 F28            3.8251     4.7765    11.9352 F       
  29 O29            2.3486     6.7922    10.2291 O.2     
  30 C30           -1.1986    -0.8435     0.0097 C.3     
  31 H31            2.7924     0.7467     0.8759 H       
  32 H32            2.7753     0.7564    -0.9169 H       
  33 H33            2.5060     3.4381    -0.5182 H       
  34 H34            0.7749     3.8522    -0.4994 H       
  35 H35            3.7740     3.3211     1.5526 H       
  36 H36           -0.3766     4.3268     1.6162 H       
  37 H37           -0.0874     5.1035     3.9583 H       
  38 H38            5.6039     6.1124     7.7708 H       
  39 H39            5.2166     4.4718     8.3646 H       
  40 H40            4.2972     4.6020     5.4323 H       
  41 H41            0.1479     5.6588     5.6482 H       
  42 H42            0.4586     6.4228     7.9606 H       
  43 H43            6.1967     6.4947    10.3547 H       
  44 H44            4.7717     7.1385    11.2052 H       
  45 H45           -1.5068    -1.0461    -1.0159 H       
  46 H46           -0.9813    -1.7838     0.5163 H       
  47 H47           -2.0010    -0.3250     0.5345 H       
@<TRIPOS>BOND
   1    1    2 am
   2    1    5 am
   3    1    6 2
   4    2    3 am
   5    2   30 1
   6    3    4 1
   7    3    7 2
   8    4    5 1
   9    4   31 1
  10    4   32 1
  11    5    8 1
  12    8   10 1
  13    8   33 1
  14    8   34 1
  15    9   10 ar
  16    9   14 ar
  17    9   35 1
  18   10   11 ar
  19   11   12 ar
  20   11   36 1
  21   12   13 ar
  22   12   37 1
  23   13   14 ar
  24   13   20 1
  25   15   16 am
  26   15   23 1
  27   15   29 2
  28   16   17 1
  29   16   24 1
  30   17   18 1
  31   17   38 1
  32   17   39 1
  33   18   19 ar
  34   18   23 ar
  35   19   20 ar
  36   19   40 1
  37   20   21 ar
  38   21   22 ar
  39   21   41 1
  40   22   23 ar
  41   22   42 1
  42   24   25 1
  43   24   43 1
  44   24   44 1
  45   25   26 1
  46   25   27 1
  47   25   28 1
  48   30   45 1
  49   30   46 1
  50   30   47 1

#	End of record

