#	Name: ASD01730025
#	Creating user name:	WinNT
#	Creation time:	15. 06. 2019 19:23

#	Modifying user name:	WinNT
#	Modification time:	15. 06. 2019 19:23

#	Program:	/corina/corina34_cracker 3.40 0067  02.08.2006

@<TRIPOS>MOLECULE
ASD01730025
  31   32    0    0    0
SMALL
NO_CHARGES


@<TRIPOS>ATOM
   1 C1             0.2062     1.9372    -0.9266 C.2     
   2 C2             0.4796     0.9470    -2.0292 C.3     
   3 N3             1.1112     2.1604    -0.0084 N.2     
   4 N4            -0.9792     2.6032    -0.8892 N.pl3   
   5 C5            -1.2450     3.5658     0.1827 C.3     
   6 C6            -1.9902     2.3578    -1.9206 C.3     
   7 N7             2.1611     0.1267     0.1815 N.2     
   8 C8             2.2414     1.4210     0.0198 C.2     
   9 S9             3.8040     2.2142    -0.1624 S.3     
  10 C10            4.8053     1.1354     0.8922 C.3     
  11 C11            4.5116    -0.3031     0.5500 C.ar    
  12 C12            3.2251    -0.7198     0.2148 C.ar    
  13 C13            5.5495    -1.2155     0.5725 C.ar    
  14 C14            5.3222    -2.5431     0.2606 C.ar    
  15 C15            4.0493    -2.9670    -0.0778 C.ar    
  16 C16            3.0056    -2.0693    -0.1025 C.ar    
  17 H17            0.2281    -0.0568    -1.6867 H       
  18 H18           -0.1266     1.1963    -2.9001 H       
  19 H19            1.5352     0.9852    -2.2983 H       
  20 H20           -0.9074     4.5553    -0.1256 H       
  21 H21           -2.3152     3.5947     0.3880 H       
  22 H22           -0.7104     3.2637     1.0832 H       
  23 H23           -2.2781     1.3066    -1.9044 H       
  24 H24           -2.8657     2.9773    -1.7260 H       
  25 H25           -1.5791     2.6068    -2.8989 H       
  26 H26            5.8624     1.3412     0.7243 H       
  27 H27            4.5594     1.3185     1.9382 H       
  28 H28            6.5450    -0.8891     0.8352 H       
  29 H29            6.1387    -3.2497     0.2807 H       
  30 H30            3.8741    -4.0040    -0.3233 H       
  31 H31            2.0137    -2.4051    -0.3669 H       
@<TRIPOS>BOND
   1    1    2 1
   2    1    3 2
   3    1    4 1
   4    2   17 1
   5    2   18 1
   6    2   19 1
   7    3    8 1
   8    4    5 1
   9    4    6 1
  10    5   20 1
  11    5   21 1
  12    5   22 1
  13    6   23 1
  14    6   24 1
  15    6   25 1
  16    7    8 2
  17    7   12 1
  18    8    9 1
  19    9   10 1
  20   10   11 1
  21   10   26 1
  22   10   27 1
  23   11   12 ar
  24   11   13 ar
  25   12   16 ar
  26   13   14 ar
  27   13   28 1
  28   14   15 ar
  29   14   29 1
  30   15   16 ar
  31   15   30 1
  32   16   31 1

#	End of record

