#	Name: ASD05143061
#	Creating user name:	WinNT
#	Creation time:	15. 06. 2019 20:57

#	Modifying user name:	WinNT
#	Modification time:	15. 06. 2019 20:57

#	Program:	/corina/corina34_cracker 3.40 0067  02.08.2006

@<TRIPOS>MOLECULE
ASD05143061
 148  151    0    0    0
SMALL
NO_CHARGES


@<TRIPOS>ATOM
   1 C1            -1.9683     2.7158     4.9852 C.2     
   2 C2            -1.4480     1.6054     5.8612 C.3     
   3 N3            -1.1112     3.4529     4.2513 N.am    
   4 O4            -3.1586     2.9430     4.9368 O.2     
   5 C5            -1.6170     4.5324     3.3997 C.3     
   6 C6            -2.5866     3.9552     2.3665 C.3     
   7 C7            -2.3352     5.5484     4.2500 C.2     
   8 C8            -1.8291     3.0175     1.4243 C.3     
   9 C9            -2.7987     2.4403     0.3910 C.3     
  10 N10           -2.0734     1.5424    -0.5112 N.pl3   
  11 C11           -2.7418     0.9027    -1.5281 C.2     
  12 N12           -2.0611     0.0601    -2.3748 N.pl3   
  13 N13           -4.0208     1.0950    -1.6895 N.2     
  14 O14           -2.7368     5.2414     5.3524 O.2     
  15 N15           -2.5311     6.7983     3.7853 N.am    
  16 C16           -3.2294     7.7860     4.6119 C.3     
  17 C17           -2.2116     8.7526     5.2206 C.3     
  18 C18           -1.0421     7.9599     5.8076 C.3     
  19 C19           -0.0029     7.7322     4.7404 C.2     
  20 O20           -0.3269     7.3617     3.6320 O.2     
  21 N21            1.3110     7.9512     5.0444 N.am    
  22 C22            2.2674     7.6981     3.9427 C.3     
  23 C23            2.4189     8.9798     3.1210 C.3     
  24 C24            2.9415     8.6317     1.7258 C.3     
  25 C25            3.9262     9.7087     1.2660 C.3     
  26 N26            3.7570     9.9204    -0.1857 N.am    
  27 C27            5.3360     9.2582     1.5497 C.2     
  28 N28            5.8434     9.3746     2.7929 N.am    
  29 O29            6.0141     8.7909     0.6593 O.2     
  30 C30            2.9521    10.9521    -0.5600 C.2     
  31 O31            2.4193    11.6500     0.2767 O.2     
  32 C32            2.7316    11.2166    -2.0271 C.3     
  33 N33            1.5473    12.0935    -2.1750 N.am    
  34 C34            3.9618    11.9112    -2.6145 C.3     
  35 C35            0.4131    11.4750    -2.6196 C.2     
  36 O36            0.4146    10.2886    -2.8718 O.2     
  37 C37           -0.8400    12.2946    -2.7902 C.3     
  38 N38           -2.0123    11.4068    -2.6582 N.am    
  39 C39           -0.8941    13.3789    -1.7121 C.3     
  40 C40           -3.0270    11.8512    -1.8667 C.2     
  41 O41           -2.9450    12.9231    -1.3053 O.2     
  42 C42           -4.2537    10.9923    -1.6988 C.3     
  43 C43            3.7893    12.0636    -4.1039 C.2     
  44 C44            3.0880    13.1493    -4.7933 C.ar    
  45 C45            3.1884    12.8659    -6.1675 C.ar    
  46 N46            3.8997    11.6934    -6.2895 N.pl3   
  47 C47            4.2542    11.2332    -5.0506 C.2     
  48 C48            2.4107    14.2929    -4.3653 C.ar    
  49 C49            1.8482    15.1320    -5.2851 C.ar    
  50 C50            1.9440    14.8566    -6.6424 C.ar    
  51 C51            2.6083    13.7345    -7.0865 C.ar    
  52 N52           -4.7119    11.0888    -0.2940 N.am    
  53 C53           -3.9110     9.5380    -2.0280 C.3     
  54 C54           -5.1562     8.6945    -1.9331 C.ar    
  55 C55           -6.1539     8.8245    -2.8825 C.ar    
  56 C56           -7.2968     8.0494    -2.7949 C.ar    
  57 C57           -7.4409     7.1459    -1.7592 C.ar    
  58 C58           -6.4434     7.0164    -0.8106 C.ar    
  59 C59           -5.2992     7.7867    -0.9005 C.ar    
  60 C60           -4.2048     8.5556     3.7588 C.2     
  61 O61           -5.3987     8.4566     3.9479 O.2     
  62 C62           -0.7635    12.7323    -0.3316 C.3     
  63 C63           -0.9423    13.7993     0.7503 C.3     
  64 N64           -0.8173    13.1803     2.0721 N.pl3   
  65 C65           -0.9421    13.9484     3.2055 C.2     
  66 N66           -1.1841    15.2975     3.0984 N.pl3   
  67 N67           -0.8309    13.3976     4.3816 N.2     
  68 N68           -3.7265     9.3631     2.7727 N.am    
  69 C69           -4.7294    10.0919     1.9706 C.3     
  70 C70           -4.3014    10.0759     0.5258 C.2     
  71 O71           -3.6052     9.1796     0.0982 O.2     
  72 Cl72          -5.9724     9.9602    -4.1829 Cl      
  73 C73           -4.8255    11.5380     2.4609 C.3     
  74 C74           -5.3637    11.5563     3.8930 C.3     
  75 C75           -5.4598    13.0024     4.3833 C.3     
  76 N76           -5.9765    13.0200     5.7583 N.3     
  77 H77           -0.3632     1.5495     5.7711 H       
  78 H78           -1.7167     1.8048     6.8986 H       
  79 H79           -1.8880     0.6588     5.5475 H       
  80 H80           -0.1595     3.2687     4.2869 H       
  81 H81           -0.7830     5.0120     2.8872 H       
  82 H82           -3.3732     3.3996     2.8770 H       
  83 H83           -3.0304     4.7677     1.7911 H       
  84 H84           -1.0425     3.5731     0.9137 H       
  85 H85           -1.3852     2.2051     1.9996 H       
  86 H86           -3.5853     1.8847     0.9016 H       
  87 H87           -3.2425     3.2527    -0.1843 H       
  88 H88           -1.1215     1.3993    -0.3910 H       
  89 H89           -1.1092    -0.0831    -2.2546 H       
  90 H90           -2.5327    -0.3913    -3.0923 H       
  91 H91           -4.4923     0.6437    -2.4070 H       
  92 H92           -2.2099     7.0439     2.9036 H       
  93 H93           -3.7685     7.2758     5.4102 H       
  94 H94           -1.8421     9.4257     4.4469 H       
  95 H95           -2.6891     9.3335     6.0096 H       
  96 H96           -0.6002     8.5208     6.6312 H       
  97 H97           -1.4025     6.9990     6.1747 H       
  98 H98            1.5974     8.2520     5.9209 H       
  99 H99            3.2346     7.4125     4.3565 H       
 100 H100           1.8888     6.8983     3.3063 H       
 101 H101           1.4503     9.4721     3.0339 H       
 102 H102           3.1230     9.6481     3.6166 H       
 103 H103           3.4474     7.6667     1.7577 H       
 104 H104           2.1063     8.5810     1.0272 H       
 105 H105           3.7242    10.6390     1.7968 H       
 106 H106           4.1965     9.3534    -0.8386 H       
 107 H107           5.3011     9.7483     3.5050 H       
 108 H108           6.7509     9.0846     2.9755 H       
 109 H109           2.5568    10.2745    -2.5467 H       
 110 H110           1.5751    13.0413    -1.9708 H       
 111 H111           4.0756    12.8950    -2.1594 H       
 112 H112           4.8493    11.3119    -2.4110 H       
 113 H113          -0.8419    12.7578    -3.7770 H       
 114 H114          -2.0571    10.5506    -3.1119 H       
 115 H115          -0.0751    14.0823    -1.8628 H       
 116 H116          -1.8445    13.9086    -1.7768 H       
 117 H117          -5.0410    11.3447    -2.3652 H       
 118 H118           4.1200    11.2601    -7.1290 H       
 119 H119           4.8178    10.3314    -4.8621 H       
 120 H120           2.3316    14.5131    -3.3110 H       
 121 H121           1.3244    16.0164    -4.9536 H       
 122 H122           1.4938    15.5292    -7.3575 H       
 123 H123           2.6777    13.5292    -8.1445 H       
 124 H124          -5.2647    11.8204     0.0222 H       
 125 H125          -3.5088     9.4795    -3.0394 H       
 126 H126          -3.1683     9.1704    -1.3199 H       
 127 H127          -8.0762     8.1507    -3.5356 H       
 128 H128          -8.3330     6.5411    -1.6906 H       
 129 H129          -6.5566     6.3104    -0.0012 H       
 130 H130          -4.5202     7.6848    -0.1594 H       
 131 H131          -1.5294    11.9655    -0.2156 H       
 132 H132           0.2227    12.2784    -0.2348 H       
 133 H133          -0.1763    14.5662     0.6343 H       
 134 H134          -1.9285    14.2533     0.6535 H       
 135 H135          -0.6465    12.2284     2.1477 H       
 136 H136          -1.2669    15.7074     2.2232 H       
 137 H137          -1.2722    15.8394     3.8981 H       
 138 H138          -0.9189    13.9395     5.1813 H       
 139 H139          -2.7755     9.4553     2.6058 H       
 140 H140          -5.6998     9.6054     2.0695 H       
 141 H141          -3.8365    11.9958     2.4385 H       
 142 H142          -5.4996    12.0975     1.8123 H       
 143 H143          -6.3526    11.0986     3.9154 H       
 144 H144          -4.6896    10.9968     4.5416 H       
 145 H145          -4.4708    13.4602     4.3609 H       
 146 H146          -6.1339    13.5619     3.7347 H       
 147 H147          -6.0493    13.9647     6.1052 H       
 148 H148          -6.8641    12.5437     5.8172 H       
@<TRIPOS>BOND
   1    1    2 1
   2    1    3 am
   3    1    4 2
   4    2   77 1
   5    2   78 1
   6    2   79 1
   7    3    5 1
   8    3   80 1
   9    5    6 1
  10    5    7 1
  11    5   81 1
  12    6    8 1
  13    6   82 1
  14    6   83 1
  15    7   14 2
  16    7   15 am
  17    8    9 1
  18    8   84 1
  19    8   85 1
  20    9   10 1
  21    9   86 1
  22    9   87 1
  23   10   11 1
  24   10   88 1
  25   11   12 1
  26   11   13 2
  27   12   89 1
  28   12   90 1
  29   13   91 1
  30   15   16 1
  31   15   92 1
  32   16   17 1
  33   16   60 1
  34   16   93 1
  35   17   18 1
  36   17   94 1
  37   17   95 1
  38   18   19 1
  39   18   96 1
  40   18   97 1
  41   19   20 2
  42   19   21 am
  43   21   22 1
  44   21   98 1
  45   22   23 1
  46   22   99 1
  47   22  100 1
  48   23   24 1
  49   23  101 1
  50   23  102 1
  51   24   25 1
  52   24  103 1
  53   24  104 1
  54   25   26 1
  55   25   27 1
  56   25  105 1
  57   26   30 am
  58   26  106 1
  59   27   28 am
  60   27   29 2
  61   28  107 1
  62   28  108 1
  63   30   31 2
  64   30   32 1
  65   32   33 1
  66   32   34 1
  67   32  109 1
  68   33   35 am
  69   33  110 1
  70   34   43 1
  71   34  111 1
  72   34  112 1
  73   35   36 2
  74   35   37 1
  75   37   38 1
  76   37   39 1
  77   37  113 1
  78   38   40 am
  79   38  114 1
  80   39   62 1
  81   39  115 1
  82   39  116 1
  83   40   41 2
  84   40   42 1
  85   42   52 1
  86   42   53 1
  87   42  117 1
  88   43   44 1
  89   43   47 2
  90   44   45 ar
  91   44   48 ar
  92   45   46 1
  93   45   51 ar
  94   46   47 1
  95   46  118 1
  96   47  119 1
  97   48   49 ar
  98   48  120 1
  99   49   50 ar
 100   49  121 1
 101   50   51 ar
 102   50  122 1
 103   51  123 1
 104   52   70 am
 105   52  124 1
 106   53   54 1
 107   53  125 1
 108   53  126 1
 109   54   55 ar
 110   54   59 ar
 111   55   56 ar
 112   55   72 1
 113   56   57 ar
 114   56  127 1
 115   57   58 ar
 116   57  128 1
 117   58   59 ar
 118   58  129 1
 119   59  130 1
 120   60   61 2
 121   60   68 am
 122   62   63 1
 123   62  131 1
 124   62  132 1
 125   63   64 1
 126   63  133 1
 127   63  134 1
 128   64   65 1
 129   64  135 1
 130   65   66 1
 131   65   67 2
 132   66  136 1
 133   66  137 1
 134   67  138 1
 135   68   69 1
 136   68  139 1
 137   69   70 1
 138   69   73 1
 139   69  140 1
 140   70   71 2
 141   73   74 1
 142   73  141 1
 143   73  142 1
 144   74   75 1
 145   74  143 1
 146   74  144 1
 147   75   76 1
 148   75  145 1
 149   75  146 1
 150   76  147 1
 151   76  148 1

#	End of record

