#	Name: ASD01948033
#	Creating user name:	WinNT
#	Creation time:	15. 06. 2019 20:13

#	Modifying user name:	WinNT
#	Modification time:	15. 06. 2019 20:13

#	Program:	/corina/corina34_cracker 3.40 0067  02.08.2006

@<TRIPOS>MOLECULE
ASD01948033
  71   74    0    0    0
SMALL
NO_CHARGES


@<TRIPOS>ATOM
   1 C1            -2.7975    -0.0973     1.7052 C.2     
   2 C2            -2.4199    -0.8785     0.6395 C.2     
   3 C3            -1.7975    -0.2962    -0.4765 C.2     
   4 C4            -1.5720     1.0747    -0.4832 C.2     
   5 C5            -1.9696     1.8305     0.6159 C.2     
   6 N6            -2.5661     1.2460     1.6764 N.am    
   7 N7            -3.4236    -0.4931     2.8794 N.am    
   8 C8            -3.6344     0.6806     3.7328 C.3     
   9 C9            -3.0580     1.8536     2.9243 C.3     
  10 C10           -3.7816    -1.7558     3.1859 C.2     
  11 O11           -3.2816    -2.6903     2.5917 O.2     
  12 O12           -4.6934    -1.9816     4.1505 O.3     
  13 O13           -1.7759     3.0374     0.6211 O.2     
  14 C14           -0.9061     1.7340    -1.6635 C.3     
  15 N15           -2.6574    -2.2669     0.6669 N.am    
  16 S16           -1.5553    -3.3088     0.0021 S.o2    
  17 O17           -2.1005    -4.5982     0.2460 O.2     
  18 O18           -1.3742    -2.8286    -1.3230 O.2     
  19 C19           -0.0486    -3.0591     0.9810 C.3     
  20 C20            1.2237    -3.7681     0.5126 C.3     
  21 C21            1.0843    -2.2541     0.3412 C.3     
  22 C22           -0.2589    -2.9082     2.4889 C.3     
  23 C23           -0.4598    -1.4304     2.8304 C.3     
  24 C24           -0.4450    -1.2514     4.3499 C.3     
  25 O25           -0.7481     0.1072     4.6725 O.3     
  26 O26            0.5942    -0.6597     2.2497 O.3     
  27 N27           -1.4132    -1.0779    -1.5554 N.pl3   
  28 C28           -2.3730    -1.5356    -2.4649 C.ar    
  29 C29           -1.9761    -2.1831    -3.6306 C.ar    
  30 C30           -2.9275    -2.6343    -4.5263 C.ar    
  31 C31           -4.2726    -2.4415    -4.2639 C.ar    
  32 C32           -4.6691    -1.7980    -3.1055 C.ar    
  33 C33           -3.7234    -1.3497    -2.2033 C.ar    
  34 F34           -0.6629    -2.3703    -3.8869 F       
  35 Br35          -5.5713    -3.0588    -5.4920 Br      
  36 C36           -4.9513    -3.3665     4.5026 C.3     
  37 C37           -3.6376    -4.0467     4.8928 C.3     
  38 C38           -5.9236    -3.4201     5.6827 C.3     
  39 C39           -5.5646    -4.0919     3.3031 C.3     
  40 H40           -4.6983     0.8333     3.9137 H       
  41 H41           -3.0999     0.5661     4.6759 H       
  42 H42           -2.2375     2.3237     3.4665 H       
  43 H43           -3.8387     2.5832     2.7089 H       
  44 H44           -1.6546     1.9619    -2.4224 H       
  45 H45           -0.4240     2.6565    -1.3402 H       
  46 H46           -0.1582     1.0604    -2.0817 H       
  47 H47           -3.4666    -2.6126     1.0753 H       
  48 H48            1.9112    -4.1266     1.2788 H       
  49 H49            1.1555    -4.3845    -0.3837 H       
  50 H50            0.9243    -1.8745    -0.6680 H       
  51 H51            1.6800    -1.6166     0.9945 H       
  52 H52           -1.1401    -3.4740     2.7913 H       
  53 H53            0.6156    -3.2876     3.0175 H       
  54 H54           -1.4175    -1.0928     2.4342 H       
  55 H55           -1.1905    -1.9068     4.8002 H       
  56 H56            0.5423    -1.5050     4.7359 H       
  57 H57           -0.7562     0.2938     5.6213 H       
  58 H58            1.4771    -0.9062     2.5574 H       
  59 H59           -0.4789    -1.3074    -1.6797 H       
  60 H60           -2.6208    -3.1371    -5.4316 H       
  61 H61           -5.7197    -1.6490    -2.9041 H       
  62 H62           -4.0346    -0.8513    -1.2971 H       
  63 H63           -3.1569    -3.4786     5.6893 H       
  64 H64           -3.8421    -5.0591     5.2410 H       
  65 H65           -2.9778    -4.0869     4.0261 H       
  66 H66           -6.8595    -2.9355     5.4047 H       
  67 H67           -6.1172    -4.4597     5.9470 H       
  68 H68           -5.4867    -2.9033     6.5372 H       
  69 H69           -4.8375    -4.1320     2.4921 H       
  70 H70           -5.8408    -5.1054     3.5939 H       
  71 H71           -6.4524    -3.5551     2.9689 H       
@<TRIPOS>BOND
   1    1    2 2
   2    1    6 1
   3    1    7 1
   4    2    3 1
   5    2   15 1
   6    3    4 2
   7    3   27 1
   8    4    5 1
   9    4   14 1
  10    5    6 am
  11    5   13 2
  12    6    9 1
  13    7    8 1
  14    7   10 am
  15    8    9 1
  16    8   40 1
  17    8   41 1
  18    9   42 1
  19    9   43 1
  20   10   11 2
  21   10   12 1
  22   12   36 1
  23   14   44 1
  24   14   45 1
  25   14   46 1
  26   15   16 am
  27   15   47 1
  28   16   17 2
  29   16   18 2
  30   16   19 1
  31   19   20 1
  32   19   21 1
  33   19   22 1
  34   20   21 1
  35   20   48 1
  36   20   49 1
  37   21   50 1
  38   21   51 1
  39   22   23 1
  40   22   52 1
  41   22   53 1
  42   23   24 1
  43   23   26 1
  44   23   54 1
  45   24   25 1
  46   24   55 1
  47   24   56 1
  48   25   57 1
  49   26   58 1
  50   27   28 1
  51   27   59 1
  52   28   29 ar
  53   28   33 ar
  54   29   30 ar
  55   29   34 1
  56   30   31 ar
  57   30   60 1
  58   31   32 ar
  59   31   35 1
  60   32   33 ar
  61   32   61 1
  62   33   62 1
  63   36   37 1
  64   36   39 1
  65   36   38 1
  66   37   63 1
  67   37   64 1
  68   37   65 1
  69   38   66 1
  70   38   67 1
  71   38   68 1
  72   39   69 1
  73   39   70 1
  74   39   71 1

#	End of record

