#	Name: ASD01948309
#	Creating user name:	WinNT
#	Creation time:	15. 06. 2019 20:14

#	Modifying user name:	WinNT
#	Modification time:	15. 06. 2019 20:14

#	Program:	/corina/corina34_cracker 3.40 0067  02.08.2006

@<TRIPOS>MOLECULE
ASD01948309
  49   51    0    0    0
SMALL
NO_CHARGES


@<TRIPOS>ATOM
   1 C1            -0.0487     1.5930     0.2121 C.2     
   2 N2            -0.1218     0.2318     0.1672 N.am    
   3 C3             0.9885    -0.5213     0.0630 C.2     
   4 C4             2.3363     1.4648     0.0420 C.2     
   5 C5             1.1471     2.2247     0.1523 C.2     
   6 C6             2.9527     3.1252    -2.1142 C.ar    
   7 C7             3.8524     2.9758    -1.0674 C.ar    
   8 N8             3.5691     2.0925    -0.0200 N.pl3   
   9 C9             3.2351     3.9977    -3.1473 C.ar    
  10 C10            4.4132     4.7228    -3.1407 C.ar    
  11 C11            5.3128     4.5773    -2.1000 C.ar    
  12 C12            5.0364     3.7057    -1.0626 C.ar    
  13 N13            1.2076     3.6272     0.1996 N.am    
  14 S14           -0.1861     4.5121     0.3287 S.o2    
  15 C15           -0.8547     4.0689     1.9557 C.3     
  16 O16            0.8961    -1.7390     0.0247 O.2     
  17 C17           -1.4314    -0.4215     0.2340 C.3     
  18 F18            5.9146     3.5638    -0.0459 F       
  19 I19            4.8358     6.0443    -4.7104 I       
  20 O20            0.2546     5.8630     0.3219 O.2     
  21 O21           -1.0186     4.0079    -0.7067 O.2     
  22 C22            2.2473     0.0837    -0.0021 C.2     
  23 C23           -1.6542    -1.2483    -1.0340 C.3     
  24 C24           -2.3763    -1.1240     2.3729 C.2     
  25 C25           -1.4807    -1.3259     1.4385 C.2     
  26 C26            3.4923    -0.7574    -0.1183 C.3     
  27 C27           -2.2225     4.6388     2.3366 C.3     
  28 C28           -2.0814     3.1552     1.9904 C.3     
  29 H29           -0.9557     2.1739     0.2917 H       
  30 H30            2.0346     2.5565    -2.1230 H       
  31 H31            4.2361     1.9199     0.6627 H       
  32 H32            2.5353     4.1135    -3.9617 H       
  33 H33            6.2318     5.1446    -2.0978 H       
  34 H34            2.0657     4.0773     0.1566 H       
  35 H35           -0.1183     3.9537     2.7510 H       
  36 H36           -2.2113     0.3355     0.3158 H       
  37 H37           -2.6285    -1.7344    -0.9843 H       
  38 H38           -1.6185    -0.5942    -1.9052 H       
  39 H39           -0.8742    -2.0053    -1.1159 H       
  40 H40           -2.4116    -1.7721     3.2361 H       
  41 H41           -3.0793    -0.3094     2.2801 H       
  42 H42           -0.7777    -2.1405     1.5312 H       
  43 H43            3.2262    -1.8120    -0.0480 H       
  44 H44            3.9712    -0.5667    -1.0787 H       
  45 H45            4.1801    -0.5016     0.6878 H       
  46 H46           -2.3862     4.8982     3.3825 H       
  47 H47           -2.7207     5.2801     1.6095 H       
  48 H48           -2.4867     2.8204     1.0355 H       
  49 H49           -2.1522     2.4385     2.8086 H       
@<TRIPOS>BOND
   1    1    2 1
   2    1    5 2
   3    1   29 1
   4    2    3 am
   5    2   17 1
   6    3   22 1
   7    3   16 2
   8    4    5 1
   9    4    8 1
  10    4   22 2
  11    5   13 1
  12    6    7 ar
  13    6    9 ar
  14    6   30 1
  15    7    8 1
  16    7   12 ar
  17    8   31 1
  18    9   10 ar
  19    9   32 1
  20   10   11 ar
  21   10   19 1
  22   11   12 ar
  23   11   33 1
  24   12   18 1
  25   13   14 am
  26   13   34 1
  27   14   15 1
  28   14   20 2
  29   14   21 2
  30   15   27 1
  31   15   28 1
  32   15   35 1
  33   17   23 1
  34   17   25 1
  35   17   36 1
  36   22   26 1
  37   23   37 1
  38   23   38 1
  39   23   39 1
  40   24   25 2
  41   24   40 1
  42   24   41 1
  43   25   42 1
  44   26   43 1
  45   26   44 1
  46   26   45 1
  47   27   28 1
  48   27   46 1
  49   27   47 1
  50   28   48 1
  51   28   49 1

#	End of record

