#	Name: ASD01850028
#	Creating user name:	WinNT
#	Creation time:	15. 06. 2019 19:38

#	Modifying user name:	WinNT
#	Modification time:	15. 06. 2019 19:38

#	Program:	/corina/corina34_cracker 3.40 0067  02.08.2006

@<TRIPOS>MOLECULE
ASD01850028
  51   55    0    0    0
SMALL
NO_CHARGES


@<TRIPOS>ATOM
   1 C1             1.0757     1.1164     0.2185 C.3     
   2 C2             0.8069    -0.3629     0.1157 C.ar    
   3 C3             0.8045    -1.1458     1.2549 C.ar    
   4 C4             0.5579    -2.5027     1.1606 C.ar    
   5 C5             0.3133    -3.0766    -0.0730 C.ar    
   6 C6             0.3148    -2.2935    -1.2122 C.ar    
   7 C7             0.5571    -0.9359    -1.1173 C.ar    
   8 C8             0.0455    -4.5560    -0.1760 C.3     
   9 N9            -0.6195    -5.0531     1.0343 N.am    
  10 C10            0.4516    -5.5360     1.9320 C.3     
  11 C11            1.7694    -5.3500     1.1414 C.3     
  12 N12            1.3141    -5.3211    -0.2595 N.am    
  13 C13            1.4873    -5.6784    -1.5323 C.2     
  14 O14            2.5397    -6.0387    -2.0224 O.2     
  15 C15            0.2025    -5.5689    -2.2564 C.ar    
  16 C16           -0.7179    -4.8762    -1.4293 C.ar    
  17 C17           -2.0046    -4.6544    -1.8627 C.ar    
  18 C18           -2.4010    -5.0974    -3.1132 C.ar    
  19 C19           -1.5063    -5.7643    -3.9318 C.ar    
  20 C20           -0.2047    -5.9959    -3.5202 C.ar    
  21 C21           -1.9448    -5.0660     1.2794 C.2     
  22 O22           -2.7130    -4.5437     0.4954 O.2     
  23 C23           -2.4641    -5.7154     2.5019 C.ar    
  24 C24           -1.5821    -6.1641     3.4859 C.ar    
  25 C25           -2.0734    -6.7689     4.6246 C.ar    
  26 C26           -3.4370    -6.9314     4.7917 C.ar    
  27 C27           -4.3170    -6.4887     3.8199 C.ar    
  28 C28           -3.8393    -5.8773     2.6794 C.ar    
  29 C29           -5.8009    -6.6699     4.0105 C.3     
  30 F30           -6.0398    -7.3041     5.2344 F       
  31 F31           -6.4282    -5.4195     4.0029 F       
  32 F32           -6.3122    -7.4545     2.9711 F       
  33 H33            2.1464     1.2984     0.1255 H       
  34 H34            0.5477     1.6380    -0.5797 H       
  35 H35            0.7275     1.4826     1.1843 H       
  36 H36            0.9955    -0.6974     2.2187 H       
  37 H37            0.5567    -3.1145     2.0506 H       
  38 H38            0.1241    -2.7420    -2.1760 H       
  39 H39            0.5583    -0.3241    -2.0073 H       
  40 H40            0.4734    -4.9428     2.8462 H       
  41 H41            0.2991    -6.5891     2.1685 H       
  42 H42            2.2505    -4.4095     1.4098 H       
  43 H43            2.4424    -6.1906     1.3107 H       
  44 H44           -2.7062    -4.1347    -1.2270 H       
  45 H45           -3.4118    -4.9223    -3.4508 H       
  46 H46           -1.8203    -6.1033    -4.9080 H       
  47 H47            0.4835    -6.5174    -4.1689 H       
  48 H48           -0.5173    -6.0385     3.3562 H       
  49 H49           -1.3919    -7.1165     5.3868 H       
  50 H50           -3.8164    -7.4060     5.6846 H       
  51 H51           -4.5271    -5.5320     1.9218 H       
@<TRIPOS>BOND
   1    1    2 1
   2    1   33 1
   3    1   34 1
   4    1   35 1
   5    2    3 ar
   6    2    7 ar
   7    3    4 ar
   8    3   36 1
   9    4    5 ar
  10    4   37 1
  11    5    6 ar
  12    5    8 1
  13    6    7 ar
  14    6   38 1
  15    7   39 1
  16    8    9 1
  17    8   12 1
  18    8   16 1
  19    9   10 1
  20    9   21 am
  21   10   11 1
  22   10   40 1
  23   10   41 1
  24   11   12 1
  25   11   42 1
  26   11   43 1
  27   12   13 am
  28   13   14 2
  29   13   15 1
  30   15   16 ar
  31   15   20 ar
  32   16   17 ar
  33   17   18 ar
  34   17   44 1
  35   18   19 ar
  36   18   45 1
  37   19   20 ar
  38   19   46 1
  39   20   47 1
  40   21   22 2
  41   21   23 1
  42   23   24 ar
  43   23   28 ar
  44   24   25 ar
  45   24   48 1
  46   25   26 ar
  47   25   49 1
  48   26   27 ar
  49   26   50 1
  50   27   28 ar
  51   27   29 1
  52   28   51 1
  53   29   30 1
  54   29   31 1
  55   29   32 1

#	End of record

