#	Name: ASD01918169
#	Creating user name:	WinNT
#	Creation time:	15. 06. 2019 20:10

#	Modifying user name:	WinNT
#	Modification time:	15. 06. 2019 20:10

#	Program:	/corina/corina34_cracker 3.40 0067  02.08.2006

@<TRIPOS>MOLECULE
ASD01918169
  48   51    0    0    0
SMALL
NO_CHARGES


@<TRIPOS>ATOM
   1 C1             0.5512     2.1314    -0.1895 C.ar    
   2 C2             0.8767     0.7869    -0.4159 C.ar    
   3 C3             2.1823     0.3977    -0.3980 C.ar    
   4 C4             3.1983     1.3194    -0.1573 C.ar    
   5 C5             2.9163     2.6322     0.0667 C.ar    
   6 C6             1.5809     3.0707     0.0553 C.ar    
   7 N7             1.2758     4.3555     0.2709 N.ar    
   8 C8             0.0336     4.7797     0.2629 C.ar    
   9 C9            -1.0325     3.9211     0.0310 C.ar    
  10 C10           -0.7924     2.5769    -0.2056 C.ar    
  11 S11           -2.6827     4.5388     0.0315 S.o2    
  12 O12           -3.4510     3.6302     0.8081 O.2     
  13 O13           -2.5916     5.9266     0.3232 O.2     
  14 C14           -3.2861     4.4160    -1.6194 C.ar    
  15 C15           -2.9672     5.3909    -2.5462 C.ar    
  16 C16           -4.0736     3.3419    -1.9894 C.ar    
  17 C17           -4.5470     3.2456    -3.2846 C.ar    
  18 C18           -4.2332     4.2236    -4.2097 C.ar    
  19 C19           -3.4406     5.2946    -3.8414 C.ar    
  20 N20           -1.8353     1.6956    -0.4465 N.3     
  21 C21           -1.7705     1.1862    -1.7466 C.3     
  22 C22           -1.9196     0.6729     0.6148 C.3     
  23 C23           -3.0388     0.3840    -2.1112 C.3     
  24 C24           -3.3617     0.2507     0.7435 C.3     
  25 C25           -2.9653    -0.9741    -1.4611 C.3     
  26 C26           -3.6592    -1.0109    -0.0848 C.3     
  27 H27            0.0969     0.0636    -0.6032 H       
  28 H28            2.4324    -0.6384    -0.5722 H       
  29 H29            4.2259     0.9874    -0.1479 H       
  30 H30            3.7157     3.3342     0.2525 H       
  31 H31           -0.1648     5.8261     0.4420 H       
  32 H32           -2.3485     6.2280    -2.2582 H       
  33 H33           -4.3188     2.5777    -1.2666 H       
  34 H34           -5.1617     2.4060    -3.5738 H       
  35 H35           -4.6028     4.1482    -5.2217 H       
  36 H36           -3.1917     6.0564    -4.5653 H       
  37 H37           -1.6599     2.0138    -2.4473 H       
  38 H38           -0.9013     0.5337    -1.8295 H       
  39 H39           -1.3065    -0.1876     0.3465 H       
  40 H40           -1.5731     1.0927     1.5591 H       
  41 H41           -3.9210     0.9133    -1.7512 H       
  42 H42           -3.0980     0.2676    -3.1933 H       
  43 H43           -3.5808     0.0478     1.7918 H       
  44 H44           -4.0022     1.0622     0.3981 H       
  45 H45           -3.4417    -1.7041    -2.1154 H       
  46 H46           -1.9178    -1.2480    -1.3349 H       
  47 H47           -3.3113    -1.8858     0.4644 H       
  48 H48           -4.7360    -1.0922    -0.2328 H       
@<TRIPOS>BOND
   1    1    2 ar
   2    1    6 ar
   3    1   10 ar
   4    2    3 ar
   5    2   27 1
   6    3    4 ar
   7    3   28 1
   8    4    5 ar
   9    4   29 1
  10    5    6 ar
  11    5   30 1
  12    6    7 ar
  13    7    8 ar
  14    8    9 ar
  15    8   31 1
  16    9   10 ar
  17    9   11 1
  18   10   20 1
  19   11   12 2
  20   11   13 2
  21   11   14 1
  22   14   16 ar
  23   14   15 ar
  24   15   19 ar
  25   15   32 1
  26   16   17 ar
  27   16   33 1
  28   17   18 ar
  29   17   34 1
  30   18   19 ar
  31   18   35 1
  32   19   36 1
  33   20   21 1
  34   20   22 1
  35   21   23 1
  36   21   37 1
  37   21   38 1
  38   22   24 1
  39   22   39 1
  40   22   40 1
  41   23   25 1
  42   23   41 1
  43   23   42 1
  44   24   26 1
  45   24   43 1
  46   24   44 1
  47   25   26 1
  48   25   45 1
  49   25   46 1
  50   26   47 1
  51   26   48 1

#	End of record

