#	Name: ASD01916125
#	Creating user name:	WinNT
#	Creation time:	15. 06. 2019 20:06

#	Modifying user name:	WinNT
#	Modification time:	15. 06. 2019 20:06

#	Program:	/corina/corina34_cracker 3.40 0067  02.08.2006

@<TRIPOS>MOLECULE
ASD01916125
  44   47    0    0    0
SMALL
NO_CHARGES


@<TRIPOS>ATOM
   1 C1            -0.0167     1.3772     0.0096 C.ar    
   2 C2             0.0021    -0.0041     0.0020 C.ar    
   3 C3             1.2134    -0.6801    -0.0132 C.ar    
   4 C4             2.4032     0.0333    -0.0208 C.ar    
   5 C5             2.3791     1.4145    -0.0132 C.ar    
   6 C6             1.1705     2.0859     0.0021 C.ar    
   7 O7             1.2345    -2.0389    -0.0203 O.3     
   8 C8             2.5176    -2.6678    -0.0360 C.3     
   9 C9             2.3434    -4.1647    -0.0418 C.2     
  10 C10            1.1211    -4.8488    -0.0333 C.2     
  11 N11            3.3090    -5.0499    -0.0614 N.2     
  12 N12            2.7331    -6.3232    -0.0644 N.pl3   
  13 C13            1.3891    -6.1682    -0.0419 C.2     
  14 C14            3.4284    -7.6129    -0.0965 C.3     
  15 C15            2.4713    -8.7146     0.3711 C.3     
  16 N16            1.1725    -8.5442    -0.2979 N.am    
  17 C17            0.4063    -7.3150    -0.0236 C.3     
  18 C18            0.6971    -9.4825    -1.1404 C.2     
  19 C19           -0.6086    -9.2887    -1.7996 C.ar    
  20 O20            1.3442   -10.4888    -1.3574 O.2     
  21 C21           -1.7802    -9.7487    -1.1888 C.ar    
  22 C22           -2.9992    -9.5630    -1.8133 C.ar    
  23 C23           -3.0627    -8.9244    -3.0385 C.ar    
  24 C24           -1.9095    -8.4669    -3.6496 C.ar    
  25 C25           -0.6828    -8.6387    -3.0362 C.ar    
  26 F26            0.4426    -8.1907    -3.6346 F       
  27 F27           -1.7202   -10.3731     0.0078 F       
  28 H28           -0.9595     1.9040     0.0169 H       
  29 H29           -0.9255    -0.5572     0.0083 H       
  30 H30            3.3475    -0.4907    -0.0323 H       
  31 H31            3.3051     1.9703    -0.0187 H       
  32 H32            1.1538     3.1658     0.0080 H       
  33 H33            3.0613    -2.3618    -0.9298 H       
  34 H34            3.0787    -2.3708     0.8501 H       
  35 H35            0.1395    -4.3985    -0.0219 H       
  36 H36            3.7571    -7.8240    -1.1141 H       
  37 H37            4.2933    -7.5767     0.5659 H       
  38 H38            2.8866    -9.6898     0.1168 H       
  39 H39            2.3366    -8.6458     1.4506 H       
  40 H40           -0.0651    -7.3816     0.9569 H       
  41 H41           -0.3521    -7.1701    -0.7930 H       
  42 H42           -3.9045    -9.9178    -1.3434 H       
  43 H43           -4.0185    -8.7826    -3.5210 H       
  44 H44           -1.9680    -7.9699    -4.6067 H       
@<TRIPOS>BOND
   1    1    2 ar
   2    1    6 ar
   3    1   28 1
   4    2    3 ar
   5    2   29 1
   6    3    4 ar
   7    3    7 1
   8    4    5 ar
   9    4   30 1
  10    5    6 ar
  11    5   31 1
  12    6   32 1
  13    7    8 1
  14    8    9 1
  15    8   33 1
  16    8   34 1
  17    9   10 1
  18    9   11 2
  19   10   13 2
  20   10   35 1
  21   11   12 1
  22   12   13 1
  23   12   14 1
  24   13   17 1
  25   14   15 1
  26   14   36 1
  27   14   37 1
  28   15   16 1
  29   15   38 1
  30   15   39 1
  31   16   17 1
  32   16   18 am
  33   17   40 1
  34   17   41 1
  35   18   19 1
  36   18   20 2
  37   19   21 ar
  38   19   25 ar
  39   21   22 ar
  40   21   27 1
  41   22   23 ar
  42   22   42 1
  43   23   24 ar
  44   23   43 1
  45   24   25 ar
  46   24   44 1
  47   25   26 1

#	End of record

