#	Name: ASD04910207
#	Creating user name:	WinNT
#	Creation time:	15. 06. 2019 20:55

#	Modifying user name:	WinNT
#	Modification time:	15. 06. 2019 20:55

#	Program:	/corina/corina34_cracker 3.40 0067  02.08.2006

@<TRIPOS>MOLECULE
ASD04910207
  33   34    0    0    0
SMALL
NO_CHARGES


@<TRIPOS>ATOM
   1 C1            -0.0180     1.4754     0.0102 C.2     
   2 C2             0.0021    -0.0041     0.0020 C.ar    
   3 C3             1.2207    -0.6851    -0.0133 C.ar    
   4 C4             1.2405    -2.0626    -0.0209 C.ar    
   5 C5             0.0397    -2.7785    -0.0132 C.ar    
   6 C6            -1.1801    -2.0956     0.0021 C.ar    
   7 C7            -1.1976    -0.7181     0.0154 C.ar    
   8 O8             1.0253     2.0968     0.0035 O.2     
   9 O9            -1.1934     2.1329     0.0193 O.3     
  10 C10            0.0597    -4.2525    -0.0218 C.2     
  11 O11            1.1176    -4.8442    -0.0355 O.2     
  12 C12           -1.2350    -5.0236    -0.0136 C.3     
  13 C13           -1.1166    -6.4326    -0.6183 C.3     
  14 C14           -2.0428    -6.9103     0.5126 C.3     
  15 C15           -1.5343    -5.7106     1.3293 C.3     
  16 F16           -3.4027    -6.8346     0.1929 F       
  17 F17           -1.6779    -8.1493     1.0501 F       
  18 C18           -1.1371     3.5838     0.0269 C.3     
  19 C19           -2.5587     4.1493     0.0367 C.3     
  20 H20            2.1482    -0.1319    -0.0195 H       
  21 H21            2.1833    -2.5893    -0.0331 H       
  22 H22           -2.1083    -2.6477     0.0080 H       
  23 H23           -2.1397    -0.1903     0.0317 H       
  24 H24           -2.0728    -4.4484    -0.4076 H       
  25 H25           -1.5584    -6.5203    -1.6109 H       
  26 H26           -0.1104    -6.8481    -0.5635 H       
  27 H27           -0.6423    -5.9287     1.9165 H       
  28 H28           -2.3133    -5.2154     1.9090 H       
  29 H29           -0.6054     3.9221     0.9162 H       
  30 H30           -0.6138     3.9318    -0.8637 H       
  31 H31           -2.5165     5.2385     0.0425 H       
  32 H32           -3.0905     3.8110    -0.8526 H       
  33 H33           -3.0820     3.8013     0.9273 H       
@<TRIPOS>BOND
   1    1    2 1
   2    1    8 2
   3    1    9 1
   4    2    3 ar
   5    2    7 ar
   6    3    4 ar
   7    3   20 1
   8    4    5 ar
   9    4   21 1
  10    5    6 ar
  11    5   10 1
  12    6    7 ar
  13    6   22 1
  14    7   23 1
  15    9   18 1
  16   10   11 2
  17   10   12 1
  18   12   13 1
  19   12   15 1
  20   12   24 1
  21   13   14 1
  22   13   25 1
  23   13   26 1
  24   14   15 1
  25   14   16 1
  26   14   17 1
  27   15   27 1
  28   15   28 1
  29   18   19 1
  30   18   29 1
  31   18   30 1
  32   19   31 1
  33   19   32 1
  34   19   33 1

#	End of record

