#	Name: ASD05313152
#	Creating user name:	WinNT
#	Creation time:	15. 06. 2019 20:58

#	Modifying user name:	WinNT
#	Modification time:	15. 06. 2019 20:58

#	Program:	/corina/corina34_cracker 3.40 0067  02.08.2006

@<TRIPOS>MOLECULE
ASD05313152
  37   40    0    0    0
SMALL
NO_CHARGES


@<TRIPOS>ATOM
   1 C1            -0.0762     0.8606     0.9755 C.2     
   2 C2             0.1030    -0.5830     0.5699 C.3     
   3 N3             0.9329     1.7665     0.9990 N.pl3   
   4 N4             1.4512    -0.7010    -0.0171 N.am    
   5 C5             2.5641    -0.0184     0.6603 C.3     
   6 C6             2.3213     1.4953     0.6301 C.3     
   7 N7            -0.9007     2.6992     1.6259 N.2     
   8 N8            -1.1604     1.4653     1.3591 N.2     
   9 C9             0.3792     2.9365     1.4217 C.2     
  10 C10            1.0799     4.2243     1.6174 C.ar    
  11 C11            0.3746     5.3460     2.0586 C.ar    
  12 N12            2.3856     4.3170     1.3789 N.ar    
  13 N13            1.0052     6.4920     2.2317 N.ar    
  14 C14            2.3020     6.5790     1.9882 C.ar    
  15 C15            3.0064     5.4684     1.5554 C.ar    
  16 C16            1.6574    -1.4143    -1.1419 C.2     
  17 O17            2.7544    -1.4194    -1.6659 O.2     
  18 C18            0.5509    -2.1897    -1.7377 C.ar    
  19 C19            0.3198    -2.1374    -3.1152 C.ar    
  20 C20           -0.7155    -2.8640    -3.6659 C.ar    
  21 C21           -1.5253    -3.6445    -2.8555 C.ar    
  22 C22           -1.3000    -3.6997    -1.4884 C.ar    
  23 C23           -0.2650    -2.9825    -0.9278 C.ar    
  24 F24           -2.5381    -4.3538    -3.3997 F       
  25 Br25           1.4234    -1.0725    -4.2215 Br      
  26 H26            0.0203    -1.2281     1.4446 H       
  27 H27           -0.6498    -0.8580    -0.1689 H       
  28 H28            2.6232    -0.3569     1.6947 H       
  29 H29            3.4981    -0.2476     0.1474 H       
  30 H30            2.5122     1.8747    -0.3737 H       
  31 H31            2.9888     1.9856     1.3388 H       
  32 H32           -0.6846     5.2756     2.2573 H       
  33 H33            2.8143     7.5190     2.1308 H       
  34 H34            4.0663     5.5443     1.3624 H       
  35 H35           -0.8957    -2.8244    -4.7300 H       
  36 H36           -1.9344    -4.3093    -0.8620 H       
  37 H37           -0.0882    -3.0301     0.1365 H       
@<TRIPOS>BOND
   1    1    2 1
   2    1    3 1
   3    1    8 2
   4    2    4 1
   5    2   26 1
   6    2   27 1
   7    3    6 1
   8    3    9 1
   9    4    5 1
  10    4   16 am
  11    5    6 1
  12    5   28 1
  13    5   29 1
  14    6   30 1
  15    6   31 1
  16    7    8 1
  17    7    9 2
  18    9   10 1
  19   10   11 ar
  20   10   12 ar
  21   11   13 ar
  22   11   32 1
  23   12   15 ar
  24   13   14 ar
  25   14   15 ar
  26   14   33 1
  27   15   34 1
  28   16   17 2
  29   16   18 1
  30   18   19 ar
  31   18   23 ar
  32   19   20 ar
  33   19   25 1
  34   20   21 ar
  35   20   35 1
  36   21   22 ar
  37   21   24 1
  38   22   23 ar
  39   22   36 1
  40   23   37 1

#	End of record

