#	Name: ASD01120224
#	Creating user name:	WinNT
#	Creation time:	15. 06. 2019 18:59

#	Modifying user name:	WinNT
#	Modification time:	15. 06. 2019 18:59

#	Program:	/corina/corina34_cracker 3.40 0067  02.08.2006

@<TRIPOS>MOLECULE
ASD01120224
  58   59    0    0    0
SMALL
NO_CHARGES


@<TRIPOS>ATOM
   1 C1            -0.0168     1.3849     0.0097 C.ar    
   2 C2             0.0021    -0.0041     0.0020 C.ar    
   3 C3             1.2161    -0.6790    -0.0132 C.ar    
   4 C4             2.3998     0.0323    -0.0207 C.ar    
   5 C5             2.3774     1.4150    -0.0126 C.ar    
   6 C6             1.1706     2.0901     0.0021 C.ar    
   7 N7            -1.1970    -0.7204     0.0101 N.pl3   
   8 S8             3.8901     2.3186    -0.0216 S.o2    
   9 N9             4.2961     2.5790    -1.6058 N.am    
  10 C10            3.5130     3.3523    -2.3838 C.2     
  11 N11            3.8434     3.5643    -3.6731 N.am    
  12 C12            2.9922     4.4048    -4.5188 C.3     
  13 C13            3.5882     4.4815    -5.9259 C.3     
  14 S14            2.5342     5.5223    -6.9730 S.3     
  15 O15            3.5988     3.5942     0.5329 O.2     
  16 O16            4.8805     1.4485     0.5086 O.2     
  17 O17            2.5084     3.8587    -1.9225 O.2     
  18 C18            2.9989    11.9943   -13.3690 C.ar    
  19 C19            3.5243    13.2793   -13.3202 C.ar    
  20 C20            4.8858    13.4622   -13.1142 C.ar    
  21 C21            5.7124    12.3669   -12.9590 C.ar    
  22 C22            5.1860    11.0890   -13.0077 C.ar    
  23 C23            3.8311    10.9033   -13.2126 C.ar    
  24 N24            2.6855    14.3849   -13.4785 N.pl3   
  25 S25            6.2442     9.6943   -12.8086 S.o2    
  26 N26            6.2973     9.3462   -11.1905 N.am    
  27 C27            5.1833     8.9353   -10.5527 C.2     
  28 N28            5.2265     8.6520    -9.2358 N.am    
  29 C29            4.0156     8.2053    -8.5425 C.3     
  30 C30            4.3358     7.9536    -7.0677 C.3     
  31 S31            2.8365     7.4006    -6.2093 S.3     
  32 O32            5.5874     8.5999   -13.4332 O.2     
  33 O33            7.5492    10.1260   -13.1692 O.2     
  34 O34            4.1394     8.8202   -11.1654 O.2     
  35 H35           -0.9590     1.9127     0.0170 H       
  36 H36            1.2343    -1.7589    -0.0188 H       
  37 H37            3.3440    -0.4918    -0.0325 H       
  38 H38            1.1567     3.1700     0.0084 H       
  39 H39           -2.0441    -0.2480     0.0210 H       
  40 H40           -1.1825    -1.6903     0.0047 H       
  41 H41            5.0975     2.1751    -1.9738 H       
  42 H42            4.6448     3.1603    -4.0411 H       
  43 H43            1.9925     3.9735    -4.5706 H       
  44 H44            2.9340     5.4068    -4.0937 H       
  45 H45            4.5879     4.9128    -5.8740 H       
  46 H46            3.6463     3.4795    -6.3509 H       
  47 H47            1.9401    11.8487   -13.5247 H       
  48 H48            5.2975    14.4600   -13.0761 H       
  49 H49            6.7710    12.5084   -12.7988 H       
  50 H50            3.4233     9.9040   -13.2501 H       
  51 H51            1.7350    14.2558   -13.6226 H       
  52 H52            3.0536    15.2817   -13.4442 H       
  53 H53            7.1301     9.4380   -10.7017 H       
  54 H54            6.0593     8.7438    -8.7470 H       
  55 H55            3.2472     8.9744    -8.6214 H       
  56 H56            3.6551     7.2833    -8.9985 H       
  57 H57            5.1042     7.1846    -6.9889 H       
  58 H58            4.6964     8.8756    -6.6117 H       
@<TRIPOS>BOND
   1    1    2 ar
   2    1    6 ar
   3    1   35 1
   4    2    3 ar
   5    2    7 1
   6    3    4 ar
   7    3   36 1
   8    4    5 ar
   9    4   37 1
  10    5    6 ar
  11    5    8 1
  12    6   38 1
  13    7   39 1
  14    7   40 1
  15    8    9 am
  16    8   15 2
  17    8   16 2
  18    9   10 am
  19    9   41 1
  20   10   11 am
  21   10   17 2
  22   11   12 1
  23   11   42 1
  24   12   13 1
  25   12   43 1
  26   12   44 1
  27   13   14 1
  28   13   45 1
  29   13   46 1
  30   14   31 1
  31   18   19 ar
  32   18   23 ar
  33   18   47 1
  34   19   20 ar
  35   19   24 1
  36   20   21 ar
  37   20   48 1
  38   21   22 ar
  39   21   49 1
  40   22   23 ar
  41   22   25 1
  42   23   50 1
  43   24   51 1
  44   24   52 1
  45   25   26 am
  46   25   32 2
  47   25   33 2
  48   26   27 am
  49   26   53 1
  50   27   28 am
  51   27   34 2
  52   28   29 1
  53   28   54 1
  54   29   30 1
  55   29   55 1
  56   29   56 1
  57   30   31 1
  58   30   57 1
  59   30   58 1

#	End of record

