#	Name: ASD01916466
#	Creating user name:	WinNT
#	Creation time:	15. 06. 2019 20:07

#	Modifying user name:	WinNT
#	Modification time:	15. 06. 2019 20:07

#	Program:	/corina/corina34_cracker 3.40 0067  02.08.2006

@<TRIPOS>MOLECULE
ASD01916466
  43   46    0    0    0
SMALL
NO_CHARGES


@<TRIPOS>ATOM
   1 C1            -0.0171     1.4099     0.0098 C.ar    
   2 C2             0.0021    -0.0041     0.0020 C.ar    
   3 C3            -1.1913    -0.7257     0.0344 C.ar    
   4 C4            -2.3841    -0.0645     0.0635 C.ar    
   5 C5            -2.4217     1.3382     0.0587 C.ar    
   6 C6            -1.2408     2.0762     0.0334 C.ar    
   7 N7             1.1594     2.0782     0.0021 N.2     
   8 C8             2.3163     1.4695    -0.0311 C.2     
   9 N9             2.4182     0.1179    -0.1241 N.am    
  10 C10            1.3108    -0.6650    -0.0513 C.2     
  11 C11           -3.6832     2.0156     0.0800 C.1     
  12 C12           -4.7174     2.5709     0.0974 C.1     
  13 C13           -5.9789     3.2483     0.1186 C.ar    
  14 N14           -6.0145     4.5774     0.1141 N.ar    
  15 C15           -7.1542     5.2368     0.1331 C.ar    
  16 C16           -8.3636     4.5658     0.1591 C.ar    
  17 C17           -8.3736     3.1774     0.1648 C.ar    
  18 C18           -7.1636     2.5078     0.1383 C.ar    
  19 O19            1.4015    -1.8789    -0.0305 O.2     
  20 C20            3.5464     2.3409     0.0823 C.3     
  21 N21            4.7129     1.6527    -0.4795 N.3     
  22 C22            4.8538     0.3241     0.1405 C.3     
  23 C23            3.7019    -0.5541    -0.3460 C.3     
  24 C24            6.1885    -0.2994    -0.2726 C.3     
  25 C25            5.9329     2.4505    -0.2977 C.3     
  26 H26           -1.1710    -1.8055     0.0360 H       
  27 H27           -3.3068    -0.6251     0.0902 H       
  28 H28           -1.2732     3.1557     0.0314 H       
  29 H29           -7.1446     6.3167     0.1287 H       
  30 H30           -9.2921     5.1172     0.1753 H       
  31 H31           -9.3057     2.6323     0.1849 H       
  32 H32           -7.1349     1.4281     0.1414 H       
  33 H33            3.3806     3.2714    -0.4608 H       
  34 H34            3.7323     2.5676     1.1321 H       
  35 H35            4.8115     0.4183     1.2256 H       
  36 H36            3.7135    -1.4982     0.1986 H       
  37 H37            3.8253    -0.7535    -1.4104 H       
  38 H38            7.0063     0.3414     0.0568 H       
  39 H39            6.2886    -1.2821     0.1883 H       
  40 H40            6.2214    -0.4018    -1.3573 H       
  41 H41            6.0655     2.6757     0.7605 H       
  42 H42            6.7928     1.8870    -0.6597 H       
  43 H43            5.8456     3.3808    -0.8590 H       
@<TRIPOS>BOND
   1    1    2 ar
   2    1    7 1
   3    1    6 ar
   4    2    3 ar
   5    2   10 1
   6    3    4 ar
   7    3   26 1
   8    4    5 ar
   9    4   27 1
  10    5    6 ar
  11    5   11 1
  12    6   28 1
  13    7    8 2
  14    8    9 1
  15    8   20 1
  16    9   10 am
  17    9   23 1
  18   10   19 2
  19   11   12 3
  20   12   13 1
  21   13   14 ar
  22   13   18 ar
  23   14   15 ar
  24   15   16 ar
  25   15   29 1
  26   16   17 ar
  27   16   30 1
  28   17   18 ar
  29   17   31 1
  30   18   32 1
  31   20   21 1
  32   20   33 1
  33   20   34 1
  34   21   22 1
  35   21   25 1
  36   22   23 1
  37   22   24 1
  38   22   35 1
  39   23   36 1
  40   23   37 1
  41   24   38 1
  42   24   39 1
  43   24   40 1
  44   25   41 1
  45   25   42 1
  46   25   43 1

#	End of record

