#	Name: ASD06610050
#	Creating user name:	WinNT
#	Creation time:	15. 06. 2019 21:07

#	Modifying user name:	WinNT
#	Modification time:	15. 06. 2019 21:07

#	Program:	/corina/corina34_cracker 3.40 0067  02.08.2006

@<TRIPOS>MOLECULE
ASD06610050
 229  229    0    0    0
SMALL
NO_CHARGES


@<TRIPOS>ATOM
   1 C1             3.3105     4.5710     4.3945 C.2     
   2 O2             3.4919     3.3973     4.1488 O.2     
   3 N3             5.6175     4.6354     5.1551 N.3     
   4 C4             4.4804     5.4610     4.7267 C.3     
   5 C5             4.8745     6.2687     3.4885 C.3     
   6 C6             5.9790     7.2612     3.8573 C.3     
   7 C7             6.3731     8.0689     2.6192 C.3     
   8 N8             7.4307     9.0192     2.9723 N.pl3   
   9 C9             7.9482     9.8585     2.0148 C.2     
  10 N10            7.5818     9.7326     0.7720 N.2     
  11 N11            8.8573    10.8359     2.3713 N.am    
  12 C12           -0.1947     5.0537     3.4759 C.2     
  13 O13           -0.0578     6.2534     3.3625 O.2     
  14 N14            2.0631     5.0807     4.3650 N.am    
  15 C15            0.9265     4.2169     4.0361 C.3     
  16 C16            0.4466     3.5020     5.3008 C.3     
  17 C17            1.5419     2.5573     5.7994 C.3     
  18 C18            1.0692     1.8531     7.0450 C.2     
  19 O19           -0.0309     2.0832     7.4885 O.2     
  20 O20            1.8703     0.9702     7.6619 O.3     
  21 C21           -3.7532     4.5803     2.7859 C.2     
  22 O22           -3.7767     3.5064     3.3490 O.2     
  23 N23           -1.3496     4.4688     3.1008 N.am    
  24 C24           -2.4395     5.2822     2.5562 C.3     
  25 C25           -2.2245     5.4836     1.0549 C.3     
  26 C26           -0.9539     6.3049     0.8273 C.3     
  27 C27           -0.7389     6.5063    -0.6741 C.3     
  28 C28            0.5318     7.3276    -0.9016 C.3     
  29 N29            0.7382     7.5210    -2.3432 N.3     
  30 C30           -7.1799     4.9216     1.5592 C.2     
  31 O31           -6.8581     5.7374     0.7215 O.2     
  32 N32           -4.9020     5.1460     2.3655 N.am    
  33 C33           -6.1790     4.4637     2.5887 C.3     
  34 C34           -6.6981     4.7982     3.9886 C.3     
  35 C35           -5.7435     4.2236     5.0372 C.3     
  36 C36           -6.2625     4.5581     6.4371 C.3     
  37 N37           -5.3485     4.0080     7.4411 N.pl3   
  38 C38           -5.6107     4.1840     8.7792 C.2     
  39 N39           -6.6724     4.8403     9.1545 N.2     
  40 N40           -4.7529     3.6677     9.7214 N.pl3   
  41 C41          -10.8004     4.6913     1.1102 C.2     
  42 O42          -10.9657     4.2374     2.2227 O.2     
  43 N43           -8.4325     4.4243     1.5694 N.am    
  44 C44           -9.4054     4.8694     0.5686 C.3     
  45 C45           -9.2430     4.0381    -0.7055 C.3     
  46 C46           -7.8711     4.3148    -1.3236 C.3     
  47 C47           -7.7087     3.4835    -2.5978 C.3     
  48 N48           -6.3951     3.7485    -3.1896 N.pl3   
  49 C49           -6.0221     3.1105    -4.3490 C.2     
  50 N50           -4.8533     3.3463    -4.8756 N.2     
  51 N51           -6.8819     2.2238    -4.9528 N.pl3   
  52 C52          -14.1892     4.7181    -0.2603 C.2     
  53 O53          -13.7865     4.7554    -1.4037 O.2     
  54 N54          -11.8644     5.0366     0.3584 N.am    
  55 C55          -13.2205     4.8634     0.8849 C.3     
  56 C56          -13.6018     6.0850     1.7235 C.3     
  57 O57          -13.6672     7.2385     0.8825 O.3     
  58 C58          -17.8187     4.8345    -0.6805 C.2     
  59 O59          -17.9939     5.2204     0.4558 O.2     
  60 N60          -15.5031     4.5466    -0.0138 N.am    
  61 C61          -16.4449     4.4052    -1.1271 C.3     
  62 C62          -16.4881     2.9432    -1.5760 C.3     
  63 C63          -20.8832     4.2730    -0.3195 C.2     
  64 O64          -20.3537     3.2068    -0.0876 O.2     
  65 N65          -18.8526     4.7894    -1.5439 N.am    
  66 C66          -20.1633     5.3082    -1.1448 C.3     
  67 C67          -20.9871     5.6279    -2.3938 C.3     
  68 C68          -20.3000     6.7107    -3.1852 C.2     
  69 O69          -19.3105     7.2458    -2.7443 O.2     
  70 O70          -20.7872     7.0806    -4.3800 O.3     
  71 C71          -24.3304     3.8175     0.8487 C.2     
  72 O72          -24.6982     4.9294     0.5333 O.2     
  73 N73          -22.1156     4.5319     0.1607 N.am    
  74 C74          -22.8601     3.4877     0.8689 C.3     
  75 C75          -22.3750     3.4089     2.3178 C.3     
  76 C76          -23.1778     2.3436     3.0673 C.3     
  77 C77          -22.9045     0.9707     2.4498 C.3     
  78 C78          -22.5711     4.7663     2.9959 C.3     
  79 C79          -27.0182     3.8164     2.5351 C.2     
  80 O80          -26.1668     3.9569     3.3808 O.2     
  81 N81          -25.2367     2.8770     1.1813 N.am    
  82 C82          -26.6633     3.2094     1.2022 C.3     
  83 C83          -27.4865     1.9381     0.9853 C.3     
  84 C84          -27.2230     1.3987    -0.3970 C.ar    
  85 C85          -26.1988     0.4933    -0.6020 C.ar    
  86 C86          -25.9571    -0.0014    -1.8700 C.ar    
  87 C87          -26.7399     0.4090    -2.9328 C.ar    
  88 C88          -27.7647     1.3137    -2.7276 C.ar    
  89 C89          -28.0092     1.8051    -1.4589 C.ar    
  90 O90          -28.2802     4.2009     2.7828 O.3     
  91 C91            9.1420    11.0495     3.6712 C.2     
  92 O92            8.6641    10.3305     4.5226 O.2     
  93 C93           17.6331    20.3799    17.5289 C.3     
  94 C94           16.7069    19.2301    17.1275 C.3     
  95 C95           16.5504    19.2087    15.6057 C.3     
  96 C96           15.6242    18.0590    15.2043 C.3     
  97 C97           15.4677    18.0376    13.6825 C.3     
  98 C98           14.5415    16.8879    13.2811 C.3     
  99 C99           14.3851    16.8665    11.7593 C.3     
 100 C100          13.4588    15.7167    11.3580 C.3     
 101 C101          13.3024    15.6953     9.8361 C.3     
 102 C102          12.3761    14.5456     9.4348 C.3     
 103 C103          12.2197    14.5242     7.9129 C.3     
 104 C104          11.2935    13.3745     7.5116 C.3     
 105 C105          11.1370    13.3531     5.9897 C.3     
 106 C106          10.2108    12.2033     5.5884 C.3     
 107 C107          10.0544    12.1819     4.0666 C.3     
 108 H108           5.4041     4.1410     6.0084 H       
 109 H109           5.8946     3.9954     4.4260 H       
 110 H110           4.2021     6.1417     5.5312 H       
 111 H111           5.2371     5.5929     2.7140 H       
 112 H112           4.0058     6.8130     3.1182 H       
 113 H113           5.6164     7.9370     4.6318 H       
 114 H114           6.8477     6.7168     4.2277 H       
 115 H115           6.7357     7.3931     1.8447 H       
 116 H116           5.5044     8.6132     2.2488 H       
 117 H117           7.7657     9.0560     3.8819 H       
 118 H118           7.8901    10.3695     0.1085 H       
 119 H119           9.2907    11.3683     1.6861 H       
 120 H120           1.9180     6.0194     4.5615 H       
 121 H121           1.2337     3.4784     3.2956 H       
 122 H122           0.2235     4.2390     6.0723 H       
 123 H123          -0.4526     2.9287     5.0750 H       
 124 H124           1.7650     1.8203     5.0279 H       
 125 H125           2.4411     3.1305     6.0251 H       
 126 H126           1.5233     0.5438     8.4574 H       
 127 H127          -1.4591     3.5092     3.1915 H       
 128 H128          -2.4535     6.2515     3.0546 H       
 129 H129          -2.1218     4.5132     0.5691 H       
 130 H130          -3.0793     6.0123     0.6332 H       
 131 H131          -1.0566     7.2753     1.3130 H       
 132 H132          -0.0991     5.7761     1.2490 H       
 133 H133          -0.6362     5.5360    -1.1598 H       
 134 H134          -1.5937     7.0351    -1.0958 H       
 135 H135           0.4290     8.2980    -0.4159 H       
 136 H136           1.3866     6.7989    -0.4799 H       
 137 H137           1.5720     8.0611    -2.5198 H       
 138 H138           0.7720     6.6355    -2.8256 H       
 139 H139          -4.8832     6.0049     1.9151 H       
 140 H140          -6.0356     3.3867     2.5021 H       
 141 H141          -6.7572     5.8803     4.1052 H       
 142 H142          -7.6887     4.3636     4.1222 H       
 143 H143          -5.6843     3.1415     4.9206 H       
 144 H144          -4.7528     4.6582     4.9036 H       
 145 H145          -6.3217     5.6402     6.5537 H       
 146 H146          -7.2532     4.1236     6.5707 H       
 147 H147          -4.5583     3.5195     7.1619 H       
 148 H148          -6.8574     4.9644    10.0985 H       
 149 H149          -3.9627     3.1793     9.4422 H       
 150 H150          -4.9379     3.7919    10.6655 H       
 151 H151          -8.6899     3.7718     2.2394 H       
 152 H152          -9.2360     5.9216     0.3400 H       
 153 H153          -9.3245     2.9789    -0.4611 H       
 154 H154         -10.0233     4.3078    -1.4172 H       
 155 H155          -7.7897     5.3739    -1.5680 H       
 156 H156          -7.0908     4.0451    -0.6119 H       
 157 H157          -7.7902     2.4244    -2.3534 H       
 158 H158          -8.4890     3.7532    -3.3095 H       
 159 H159          -5.7884     4.3741    -2.7636 H       
 160 H160          -4.5902     2.8961    -5.6935 H       
 161 H161          -7.7517     2.0484    -4.5609 H       
 162 H162          -6.6188     1.7737    -5.7708 H       
 163 H163         -11.7322     5.3996    -0.5313 H       
 164 H164         -13.2572     3.9695     1.5075 H       
 165 H165         -14.5739     5.9181     2.1875 H       
 166 H166         -12.8515     6.2424     2.4984 H       
 167 H167         -13.9044     8.0520     1.3484 H       
 168 H168         -15.8252     4.5167     0.9006 H       
 169 H169         -16.1210     5.0312    -1.9586 H       
 170 H170         -16.8119     2.3173    -0.7445 H       
 171 H171         -17.1888     2.8381    -2.4043 H       
 172 H172         -15.4945     2.6328    -1.8991 H       
 173 H173         -18.7290     4.4135    -2.4295 H       
 174 H174         -20.0308     6.2152    -0.5550 H       
 175 H175         -21.0790     4.7318    -3.0076 H       
 176 H176         -21.9792     5.9685    -2.0973 H       
 177 H177         -20.3123     7.7794    -4.8505 H       
 178 H178         -22.5096     5.4097     0.0375 H       
 179 H179         -22.6962     2.5283     0.3782 H       
 180 H180         -21.3176     3.1445     2.3331 H       
 181 H181         -22.8810     2.3359     4.1160 H       
 182 H182         -24.2413     2.5706     2.9923 H       
 183 H183         -23.5382     0.2243     2.9287 H       
 184 H184         -23.1235     1.0023     1.3824 H       
 185 H185         -21.8572     0.7075     2.5982 H       
 186 H186         -23.6359     4.9908     3.0583 H       
 187 H187         -22.1468     4.7359     3.9994 H       
 188 H188         -22.0704     5.5394     2.4130 H       
 189 H189         -24.9443     1.9800     1.4067 H       
 190 H190         -26.8817     3.9235     0.4081 H       
 191 H191         -27.2033     1.1910     1.7269 H       
 192 H192         -28.5465     2.1694     1.0891 H       
 193 H193         -25.5871     0.1727     0.2284 H       
 194 H194         -25.1564    -0.7082    -2.0303 H       
 195 H195         -26.5506     0.0230    -3.9236 H       
 196 H196         -28.3761     1.6346    -3.5580 H       
 197 H197         -28.8122     2.5091    -1.2979 H       
 198 H198         -28.4595     4.5849     3.6520 H       
 199 H199          18.6094    20.2387    17.0652 H       
 200 H200          17.2052    21.3249    17.1943 H       
 201 H201          17.7445    20.3951    18.6131 H       
 202 H202          17.1348    18.2851    17.4621 H       
 203 H203          15.7305    19.3713    17.5912 H       
 204 H204          16.1225    20.1538    15.2711 H       
 205 H205          17.5267    19.0676    15.1420 H       
 206 H206          16.0521    17.1140    15.5389 H       
 207 H207          14.6479    18.2002    15.6680 H       
 208 H208          15.0398    18.9826    13.3479 H       
 209 H209          16.4441    17.8964    13.2188 H       
 210 H210          14.9694    15.9429    13.6157 H       
 211 H211          13.5652    17.0290    13.7448 H       
 212 H212          13.9572    17.8115    11.4247 H       
 213 H213          15.3614    16.7253    11.2957 H       
 214 H214          13.8867    14.7717    11.6925 H       
 215 H215          12.4825    15.8579    11.8216 H       
 216 H216          12.8745    16.6404     9.5015 H       
 217 H217          14.2787    15.5542     9.3725 H       
 218 H218          12.8040    13.6006     9.7694 H       
 219 H219          11.3998    14.6868     9.8984 H       
 220 H220          11.7918    15.4692     7.5784 H       
 221 H221          13.1960    14.3830     7.4493 H       
 222 H222          11.7214    12.4295     7.8462 H       
 223 H223          10.3172    13.5156     7.9752 H       
 224 H224          10.7091    14.2981     5.6552 H       
 225 H225          12.1133    13.2119     5.5261 H       
 226 H226          10.6387    11.2583     5.9230 H       
 227 H227           9.2345    12.3445     6.0520 H       
 228 H228          11.0307    12.0408     3.6029 H       
 229 H229           9.6265    13.1270     3.7320 H       
@<TRIPOS>BOND
   1    1    2 2
   2    1    4 1
   3    1   14 am
   4    3    4 1
   5    3  108 1
   6    3  109 1
   7    4    5 1
   8    4  110 1
   9    5    6 1
  10    5  111 1
  11    5  112 1
  12    6    7 1
  13    6  113 1
  14    6  114 1
  15    7    8 1
  16    7  115 1
  17    7  116 1
  18    8    9 1
  19    8  117 1
  20    9   10 2
  21    9   11 1
  22   10  118 1
  23   11   91 am
  24   11  119 1
  25   12   13 2
  26   12   15 1
  27   12   23 am
  28   14   15 1
  29   14  120 1
  30   15   16 1
  31   15  121 1
  32   16   17 1
  33   16  122 1
  34   16  123 1
  35   17   18 1
  36   17  124 1
  37   17  125 1
  38   18   19 2
  39   18   20 1
  40   20  126 1
  41   21   22 2
  42   21   24 1
  43   21   32 am
  44   23   24 1
  45   23  127 1
  46   24   25 1
  47   24  128 1
  48   25   26 1
  49   25  129 1
  50   25  130 1
  51   26   27 1
  52   26  131 1
  53   26  132 1
  54   27   28 1
  55   27  133 1
  56   27  134 1
  57   28   29 1
  58   28  135 1
  59   28  136 1
  60   29  137 1
  61   29  138 1
  62   30   31 2
  63   30   33 1
  64   30   43 am
  65   32   33 1
  66   32  139 1
  67   33   34 1
  68   33  140 1
  69   34   35 1
  70   34  141 1
  71   34  142 1
  72   35   36 1
  73   35  143 1
  74   35  144 1
  75   36   37 1
  76   36  145 1
  77   36  146 1
  78   37   38 1
  79   37  147 1
  80   38   39 2
  81   38   40 1
  82   39  148 1
  83   40  149 1
  84   40  150 1
  85   41   42 2
  86   41   44 1
  87   41   54 am
  88   43   44 1
  89   43  151 1
  90   44   45 1
  91   44  152 1
  92   45   46 1
  93   45  153 1
  94   45  154 1
  95   46   47 1
  96   46  155 1
  97   46  156 1
  98   47   48 1
  99   47  157 1
 100   47  158 1
 101   48   49 1
 102   48  159 1
 103   49   50 2
 104   49   51 1
 105   50  160 1
 106   51  161 1
 107   51  162 1
 108   52   53 2
 109   52   55 1
 110   52   60 am
 111   54   55 1
 112   54  163 1
 113   55   56 1
 114   55  164 1
 115   56   57 1
 116   56  165 1
 117   56  166 1
 118   57  167 1
 119   58   59 2
 120   58   61 1
 121   58   65 am
 122   60   61 1
 123   60  168 1
 124   61   62 1
 125   61  169 1
 126   62  170 1
 127   62  171 1
 128   62  172 1
 129   63   64 2
 130   63   66 1
 131   63   73 am
 132   65   66 1
 133   65  173 1
 134   66   67 1
 135   66  174 1
 136   67   68 1
 137   67  175 1
 138   67  176 1
 139   68   69 2
 140   68   70 1
 141   70  177 1
 142   71   72 2
 143   71   74 1
 144   71   81 am
 145   73   74 1
 146   73  178 1
 147   74   75 1
 148   74  179 1
 149   75   76 1
 150   75   78 1
 151   75  180 1
 152   76   77 1
 153   76  181 1
 154   76  182 1
 155   77  183 1
 156   77  184 1
 157   77  185 1
 158   78  186 1
 159   78  187 1
 160   78  188 1
 161   79   80 2
 162   79   82 1
 163   79   90 1
 164   81   82 1
 165   81  189 1
 166   82   83 1
 167   82  190 1
 168   83   84 1
 169   83  191 1
 170   83  192 1
 171   84   85 ar
 172   84   89 ar
 173   85   86 ar
 174   85  193 1
 175   86   87 ar
 176   86  194 1
 177   87   88 ar
 178   87  195 1
 179   88   89 ar
 180   88  196 1
 181   89  197 1
 182   90  198 1
 183   91   92 2
 184   91  107 1
 185   93   94 1
 186   93  199 1
 187   93  200 1
 188   93  201 1
 189   94   95 1
 190   94  202 1
 191   94  203 1
 192   95   96 1
 193   95  204 1
 194   95  205 1
 195   96   97 1
 196   96  206 1
 197   96  207 1
 198   97   98 1
 199   97  208 1
 200   97  209 1
 201   98   99 1
 202   98  210 1
 203   98  211 1
 204   99  100 1
 205   99  212 1
 206   99  213 1
 207  100  101 1
 208  100  214 1
 209  100  215 1
 210  101  102 1
 211  101  216 1
 212  101  217 1
 213  102  103 1
 214  102  218 1
 215  102  219 1
 216  103  104 1
 217  103  220 1
 218  103  221 1
 219  104  105 1
 220  104  222 1
 221  104  223 1
 222  105  106 1
 223  105  224 1
 224  105  225 1
 225  106  107 1
 226  106  226 1
 227  106  227 1
 228  107  228 1
 229  107  229 1

#	End of record

