#	Name: ASD04910501
#	Creating user name:	WinNT
#	Creation time:	15. 06. 2019 20:56

#	Modifying user name:	WinNT
#	Modification time:	15. 06. 2019 20:56

#	Program:	/corina/corina34_cracker 3.40 0067  02.08.2006

@<TRIPOS>MOLECULE
ASD04910501
  80   83    0    0    0
SMALL
NO_CHARGES


@<TRIPOS>ATOM
   1 C1            -0.0205     1.3799     0.0284 C.ar    
   2 C2            -0.0064     0.0004     0.0286 C.ar    
   3 C3             1.1969    -0.6822     0.0064 C.ar    
   4 C4             2.3931     0.0126    -0.0161 C.ar    
   5 C5             2.3931     1.3922    -0.0161 C.ar    
   6 C6             1.1828     2.0870     0.0058 C.ar    
   7 C7             1.1752     3.5654     0.0060 C.2     
   8 N8             0.2041     4.2344    -0.6465 N.am    
   9 O9             2.0449     4.1775     0.5945 O.2     
  10 C10            1.2045    -2.1892     0.0073 C.3     
  11 C11            1.4308    -2.6988    -1.4175 C.3     
  12 N12            2.2816    -2.6715     0.8753 N.pl3   
  13 C13            1.3147    -4.2243    -1.4380 C.3     
  14 C14            2.1948    -3.9395     1.4585 C.ar    
  15 C15            3.2141    -4.4072     2.2855 C.ar    
  16 C16            3.0854    -5.6681     2.8407 C.ar    
  17 C17            1.9526    -6.4207     2.5575 C.ar    
  18 N18            1.0040    -5.9453     1.7671 N.ar    
  19 C19            1.0892    -4.7464     1.2255 C.ar    
  20 N20            1.8134    -7.6969     3.1142 N.pl3   
  21 C21            0.7699    -8.5345     2.9254 C.2     
  22 C22            1.0195    -9.6706     3.6385 C.2     
  23 C23            2.2633    -9.5054     4.2800 C.2     
  24 N24            2.7340    -8.3294     3.9585 N.2     
  25 C25            0.1405   -10.8639     3.7232 C.ar    
  26 C26            1.5410    -4.7339    -2.8627 C.3     
  27 C27            0.5224   -11.9602     4.4934 C.ar    
  28 C28           -0.2989   -13.0669     4.5690 C.ar    
  29 C29           -1.4991   -13.0889     3.8819 C.ar    
  30 C30           -1.8829   -12.0033     3.1155 C.ar    
  31 C31           -1.0719   -10.8892     3.0375 C.ar    
  32 C32            0.1234     5.6936    -0.5433 C.3     
  33 C33            0.9566     6.3304    -1.6573 C.3     
  34 C34           -0.7709     3.5025    -1.4589 C.3     
  35 C35            0.8736     7.8314    -1.5512 C.2     
  36 O36            1.5308     8.6038    -2.4306 O.3     
  37 O37            0.2155     8.3396    -0.6745 O.2     
  38 C38            1.4055    10.0412    -2.2679 C.3     
  39 C39            1.9333    10.4464    -0.8902 C.3     
  40 C40            2.2176    10.7500    -3.3538 C.3     
  41 C41           -0.0662    10.4418    -2.3884 C.3     
  42 H42           -0.9604     1.9116     0.0413 H       
  43 H43           -0.9367    -0.5479     0.0465 H       
  44 H44            3.3289    -0.5262    -0.0334 H       
  45 H45            3.3276     1.9334    -0.0330 H       
  46 H46            0.2475    -2.5572     0.3771 H       
  47 H47            0.6806    -2.2684    -2.0808 H       
  48 H48            2.4250    -2.4056    -1.7547 H       
  49 H49            3.0550    -2.1114     1.0455 H       
  50 H50            2.0649    -4.6547    -0.7747 H       
  51 H51            0.3205    -4.5175    -1.1008 H       
  52 H52            4.0840    -3.8002     2.4881 H       
  53 H53            3.8563    -6.0625     3.4861 H       
  54 H54            0.2949    -4.3920     0.5853 H       
  55 H55           -0.1032    -8.3399     2.3203 H       
  56 H56            2.7460   -10.2273     4.9221 H       
  57 H57            1.4583    -5.8207    -2.8773 H       
  58 H58            0.7908    -4.3035    -3.5260 H       
  59 H59            2.5352    -4.4407    -3.1999 H       
  60 H60            1.4595   -11.9442     5.0300 H       
  61 H61           -0.0036   -13.9175     5.1655 H       
  62 H62           -2.1388   -13.9569     3.9439 H       
  63 H63           -2.8209   -12.0258     2.5807 H       
  64 H64           -1.3726   -10.0420     2.4390 H       
  65 H65           -0.9157     6.0079    -0.6418 H       
  66 H66            0.5088     6.0112     0.4255 H       
  67 H67            1.9957     6.0161    -1.5588 H       
  68 H68            0.5712     6.0128    -2.6262 H       
  69 H69           -1.5864     3.1566    -0.8237 H       
  70 H70           -1.1668     4.1609    -2.2321 H       
  71 H71           -0.2849     2.6455    -1.9252 H       
  72 H72            2.9817    10.1610    -0.8044 H       
  73 H73            1.8393    11.5255    -0.7680 H       
  74 H74            1.3548     9.9414    -0.1166 H       
  75 H75            1.8416    10.4613    -4.3353 H       
  76 H76            2.1235    11.8291    -3.2317 H       
  77 H77            3.2660    10.4646    -3.2680 H       
  78 H78           -0.6447     9.9368    -1.6148 H       
  79 H79           -0.1602    11.5208    -2.2662 H       
  80 H80           -0.4421    10.1531    -3.3699 H       
@<TRIPOS>BOND
   1    1    2 ar
   2    1    6 ar
   3    1   42 1
   4    2    3 ar
   5    2   43 1
   6    3    4 ar
   7    3   10 1
   8    4    5 ar
   9    4   44 1
  10    5    6 ar
  11    5   45 1
  12    6    7 1
  13    7    8 am
  14    7    9 2
  15    8   32 1
  16    8   34 1
  17   10   11 1
  18   10   12 1
  19   10   46 1
  20   11   13 1
  21   11   47 1
  22   11   48 1
  23   12   14 1
  24   12   49 1
  25   13   26 1
  26   13   50 1
  27   13   51 1
  28   14   15 ar
  29   14   19 ar
  30   15   16 ar
  31   15   52 1
  32   16   17 ar
  33   16   53 1
  34   17   18 ar
  35   17   20 1
  36   18   19 ar
  37   19   54 1
  38   20   21 1
  39   20   24 1
  40   21   22 2
  41   21   55 1
  42   22   23 1
  43   22   25 1
  44   23   24 2
  45   23   56 1
  46   25   27 ar
  47   25   31 ar
  48   26   57 1
  49   26   58 1
  50   26   59 1
  51   27   28 ar
  52   27   60 1
  53   28   29 ar
  54   28   61 1
  55   29   30 ar
  56   29   62 1
  57   30   31 ar
  58   30   63 1
  59   31   64 1
  60   32   33 1
  61   32   65 1
  62   32   66 1
  63   33   35 1
  64   33   67 1
  65   33   68 1
  66   34   69 1
  67   34   70 1
  68   34   71 1
  69   35   36 1
  70   35   37 2
  71   36   38 1
  72   38   39 1
  73   38   40 1
  74   38   41 1
  75   39   72 1
  76   39   73 1
  77   39   74 1
  78   40   75 1
  79   40   76 1
  80   40   77 1
  81   41   78 1
  82   41   79 1
  83   41   80 1

#	End of record

