#	Name: ASD03330856
#	Creating user name:	WinNT
#	Creation time:	15. 06. 2019 20:38

#	Modifying user name:	WinNT
#	Modification time:	15. 06. 2019 20:38

#	Program:	/corina/corina34_cracker 3.40 0067  02.08.2006

@<TRIPOS>MOLECULE
ASD03330856
  63   65    0    0    0
SMALL
NO_CHARGES


@<TRIPOS>ATOM
   1 N1            -0.9956     1.8242     0.9521 N.pl3   
   2 C2            -0.7673     0.4948     0.8349 C.2     
   3 C3             0.5858    -0.1674     0.8367 C.3     
   4 N4             1.3819     0.3637     1.9540 N.3     
   5 C5             2.1302     1.5563     1.5514 C.3     
   6 C6             1.3463     2.3698     0.5253 C.3     
   7 C7             0.0311     2.8528     1.1426 C.3     
   8 C8            -2.3440     2.0178     0.8722 C.2     
   9 N9            -2.9266     0.8507     0.7295 N.2     
  10 C10           -1.9797    -0.1123     0.7055 C.2     
  11 C11           -2.2159    -1.5601     0.5647 C.2     
  12 O12           -1.2759    -2.3317     0.5569 O.2     
  13 N13           -3.4737    -2.0291     0.4445 N.am    
  14 C14           -3.0339     3.3251     0.9364 C.ar    
  15 C15           -4.0087     3.6498    -0.0076 C.ar    
  16 C16           -4.3246     5.7719     1.0561 C.ar    
  17 C17           -2.7165     4.2358     1.9442 C.ar    
  18 C18           -4.6483     4.8704     0.0576 C.ar    
  19 C19           -3.3635     5.4535     1.9985 C.ar    
  20 C20           -4.3618     2.6695    -1.0964 C.3     
  21 C21            2.2811    -0.6642     2.4951 C.3     
  22 C22           -5.0199    -3.6969    -0.4021 C.2     
  23 C23           -3.7086    -3.4683     0.3045 C.3     
  24 C24           -3.7567    -4.1144     1.6905 C.3     
  25 C25           -4.8101    -3.4080     2.5463 C.3     
  26 O26           -5.9042    -2.8707    -0.3217 O.2     
  27 N27           -5.2101    -4.8195    -1.1233 N.am    
  28 C28           -6.5183    -5.0913    -1.7241 C.3     
  29 C29           -4.1212    -5.5938     1.5512 C.3     
  30 C30           -2.3869    -3.9876     2.3602 C.3     
  31 H31            0.4643    -1.2440     0.9555 H       
  32 H32            1.0946     0.0410    -0.1045 H       
  33 H33            2.3196     2.1738     2.4294 H       
  34 H34            3.0820     1.2521     1.1161 H       
  35 H35            1.9391     3.2306     0.2159 H       
  36 H36            1.1318     1.7474    -0.3435 H       
  37 H37           -0.2829     3.7757     0.6551 H       
  38 H38            0.1733     3.0327     2.2082 H       
  39 H39           -4.2235    -1.4136     0.4507 H       
  40 H40           -4.8279     6.7264     1.1026 H       
  41 H41           -1.9663     3.9883     2.6806 H       
  42 H42           -5.4030     5.1230    -0.6725 H       
  43 H43           -3.1152     6.1614     2.7754 H       
  44 H44           -5.0971     1.9582    -0.7203 H       
  45 H45           -4.7787     3.2070    -1.9481 H       
  46 H46           -3.4649     2.1343    -1.4082 H       
  47 H47            2.9123    -1.0521     1.6956 H       
  48 H48            2.9073    -0.2265     3.2725 H       
  49 H49            1.6908    -1.4768     2.9187 H       
  50 H50           -2.9006    -3.9135    -0.2761 H       
  51 H51           -5.7860    -3.4984     2.0692 H       
  52 H52           -4.8444    -3.8683     3.5337 H       
  53 H53           -4.5504    -2.3541     2.6455 H       
  54 H54           -4.4807    -5.4473    -1.2447 H       
  55 H55           -6.4803    -6.0370    -2.2648 H       
  56 H56           -7.2728    -5.1513    -0.9398 H       
  57 H57           -6.7750    -4.2880    -2.4146 H       
  58 H58           -3.4298    -6.0748     0.8593 H       
  59 H59           -4.0553    -6.0776     2.5258 H       
  60 H60           -5.1383    -5.6830     1.1694 H       
  61 H61           -2.1272    -2.9336     2.4594 H       
  62 H62           -2.4212    -4.4479     3.3476 H       
  63 H63           -1.6364    -4.4908     1.7505 H       
@<TRIPOS>BOND
   1    1    2 1
   2    1    7 1
   3    1    8 1
   4    2    3 1
   5    2   10 2
   6    3    4 1
   7    3   31 1
   8    3   32 1
   9    4    5 1
  10    4   21 1
  11    5    6 1
  12    5   33 1
  13    5   34 1
  14    6    7 1
  15    6   35 1
  16    6   36 1
  17    7   37 1
  18    7   38 1
  19    8    9 2
  20    8   14 1
  21    9   10 1
  22   10   11 1
  23   11   12 2
  24   11   13 am
  25   13   23 1
  26   13   39 1
  27   14   15 ar
  28   14   17 ar
  29   15   18 ar
  30   15   20 1
  31   16   18 ar
  32   16   19 ar
  33   16   40 1
  34   17   19 ar
  35   17   41 1
  36   18   42 1
  37   19   43 1
  38   20   44 1
  39   20   45 1
  40   20   46 1
  41   21   47 1
  42   21   48 1
  43   21   49 1
  44   22   26 2
  45   22   27 am
  46   22   23 1
  47   23   24 1
  48   23   50 1
  49   24   25 1
  50   24   29 1
  51   24   30 1
  52   25   51 1
  53   25   52 1
  54   25   53 1
  55   27   28 1
  56   27   54 1
  57   28   55 1
  58   28   56 1
  59   28   57 1
  60   29   58 1
  61   29   59 1
  62   29   60 1
  63   30   61 1
  64   30   62 1
  65   30   63 1

#	End of record

