#	Name: ASD01814416
#	Creating user name:	WinNT
#	Creation time:	15. 06. 2019 19:32

#	Modifying user name:	WinNT
#	Modification time:	15. 06. 2019 19:32

#	Program:	/corina/corina34_cracker 3.40 0067  02.08.2006

@<TRIPOS>MOLECULE
ASD01814416
  51   56    0    0    0
SMALL
NO_CHARGES


@<TRIPOS>ATOM
   1 C1            -0.0167     1.3819     0.0096 C.ar    
   2 C2             0.0021    -0.0041     0.0020 C.ar    
   3 C3             1.1969    -0.6936    -0.0131 C.ar    
   4 C4             2.3990     0.0034    -0.0209 C.ar    
   5 C5             2.3751     1.4118    -0.0131 C.ar    
   6 C6             1.1661     2.0940     0.0022 C.ar    
   7 N7             3.6101    -0.6577    -0.0356 N.pl3   
   8 N8             4.7454    -0.0610    -0.0428 N.2     
   9 C9             4.8826     1.2395    -0.0371 C.2     
  10 C10            3.6768     2.1037    -0.0219 C.2     
  11 C11            6.0121     2.1721    -0.0422 C.2     
  12 N12            5.4770     3.4118    -0.0304 N.am    
  13 N13            4.0818     3.3390    -0.0186 N.2     
  14 C14            3.5985    -2.1226    -0.0428 C.3     
  15 C15            3.5812    -2.6178    -1.4660 C.ar    
  16 C16            4.7715    -2.8540    -2.1290 C.ar    
  17 C17            4.7589    -3.3074    -3.4335 C.ar    
  18 C18            3.5494    -3.5265    -4.0791 C.ar    
  19 C19            2.3559    -3.2889    -3.4107 C.ar    
  20 C20            2.3750    -2.8405    -2.1045 C.ar    
  21 O21            7.1976     1.8864    -0.0542 O.2     
  22 C22            6.2125     4.5967    -0.0306 C.ar    
  23 C23            7.1560     4.8316    -1.0208 C.ar    
  24 C24            7.8833     6.0056    -1.0191 C.ar    
  25 C25            7.6784     6.9559    -0.0326 C.ar    
  26 C26            6.7450     6.7400     0.9590 C.ar    
  27 C27            5.9981     5.5600     0.9675 C.ar    
  28 N28            3.5333    -3.9863    -5.4033 N.pl3   
  29 C29            2.4309    -4.2391    -6.1446 C.2     
  30 C30            2.8420    -4.6636    -7.3620 C.2     
  31 C31            4.2412    -4.6708    -7.3659 C.2     
  32 N32            4.6563    -4.2594    -6.1949 N.2     
  33 C33            5.0268     5.3297     1.9942 C.1     
  34 N34            4.2562     5.1470     2.8086 N.1     
  35 H35           -0.9605     1.9069     0.0170 H       
  36 H36           -0.9294    -0.5505     0.0084 H       
  37 H37            1.1980    -1.7735    -0.0186 H       
  38 H38            1.1510     3.1739     0.0085 H       
  39 H39            4.4904    -2.4955     0.4608 H       
  40 H40            2.7106    -2.4815     0.4776 H       
  41 H41            5.7120    -2.6834    -1.6263 H       
  42 H42            5.6888    -3.4910    -3.9510 H       
  43 H43            1.4135    -3.4581    -3.9104 H       
  44 H44            1.4469    -2.6555    -1.5840 H       
  45 H45            7.3219     4.0954    -1.7933 H       
  46 H46            8.6167     6.1836    -1.7917 H       
  47 H47            8.2529     7.8704    -0.0398 H       
  48 H48            6.5893     7.4840     1.7262 H       
  49 H49            1.4065    -4.1236    -5.8227 H       
  50 H50            2.2028    -4.9468    -8.1853 H       
  51 H51            4.8703    -4.9614    -8.1943 H       
@<TRIPOS>BOND
   1    1    2 ar
   2    1    6 ar
   3    1   35 1
   4    2    3 ar
   5    2   36 1
   6    3    4 ar
   7    3   37 1
   8    4    5 ar
   9    4    7 1
  10    5    6 ar
  11    5   10 1
  12    6   38 1
  13    7    8 1
  14    7   14 1
  15    8    9 2
  16    9   10 1
  17    9   11 1
  18   10   13 2
  19   11   12 am
  20   11   21 2
  21   12   13 1
  22   12   22 1
  23   14   15 1
  24   14   39 1
  25   14   40 1
  26   15   16 ar
  27   15   20 ar
  28   16   17 ar
  29   16   41 1
  30   17   18 ar
  31   17   42 1
  32   18   19 ar
  33   18   28 1
  34   19   20 ar
  35   19   43 1
  36   20   44 1
  37   22   23 ar
  38   22   27 ar
  39   23   24 ar
  40   23   45 1
  41   24   25 ar
  42   24   46 1
  43   25   26 ar
  44   25   47 1
  45   26   27 ar
  46   26   48 1
  47   27   33 1
  48   28   29 1
  49   28   32 1
  50   29   30 2
  51   29   49 1
  52   30   31 1
  53   30   50 1
  54   31   32 2
  55   31   51 1
  56   33   34 3

#	End of record

