#	Name: ASD03320218
#	Creating user name:	WinNT
#	Creation time:	15. 06. 2019 20:36

#	Modifying user name:	WinNT
#	Modification time:	15. 06. 2019 20:36

#	Program:	/corina/corina34_cracker 3.40 0067  02.08.2006

@<TRIPOS>MOLECULE
ASD03320218
  38   40    0    0    0
SMALL
NO_CHARGES


@<TRIPOS>ATOM
   1 C1            -0.0073     1.3431    -0.1945 C.ar    
   2 C2             0.0219    -0.0350     0.0266 C.ar    
   3 N3            -1.0908    -0.7397     0.0437 N.ar    
   4 C4            -2.2716    -0.1857    -0.1446 C.ar    
   5 C5            -2.3919     1.1847    -0.3728 C.ar    
   6 C6            -1.2406     1.9716    -0.3937 C.ar    
   7 C7             1.2458     2.1270    -0.2117 C.2     
   8 O8             1.2097     3.3267    -0.4051 O.2     
   9 N9             2.4284     1.5118    -0.0130 N.am    
  10 C10            3.6219     2.2354    -0.1262 C.ar    
  11 C11           -3.7266     1.7980    -0.5847 C.ar    
  12 C12            3.6728     3.5603     0.2867 C.ar    
  13 C13            4.8501     4.2732     0.1747 C.ar    
  14 C14            5.9816     3.6664    -0.3506 C.ar    
  15 C15            5.9315     2.3429    -0.7633 C.ar    
  16 C16            4.7566     1.6269    -0.6462 C.ar    
  17 O17            7.1402     4.3693    -0.4614 O.3     
  18 C18            8.2660     3.6820    -1.0110 C.3     
  19 F19            7.9623     3.2512    -2.3069 F       
  20 F20            9.3654     4.5462    -1.0525 F       
  21 F21            8.5726     2.5755    -0.2117 F       
  22 C22           -4.8813     1.0118    -0.5587 C.ar    
  23 C23           -6.1026     1.6318    -0.7620 C.ar    
  24 C24           -6.1400     2.9963    -0.9822 C.ar    
  25 N25           -5.0325     3.7127    -1.0011 N.ar    
  26 C26           -3.8489     3.1680    -0.8070 C.ar    
  27 H27            0.9688    -0.5295     0.1853 H       
  28 H28           -3.1584    -0.8017    -0.1224 H       
  29 H29           -1.2991     3.0359    -0.5677 H       
  30 H30            2.4527     0.5677     0.2084 H       
  31 H31            2.7918     4.0330     0.6951 H       
  32 H32            4.8899     5.3036     0.4959 H       
  33 H33            6.8127     1.8713    -1.1725 H       
  34 H34            4.7178     0.5964    -0.9673 H       
  35 H35           -4.8228    -0.0525    -0.3849 H       
  36 H36           -7.0160     1.0557    -0.7491 H       
  37 H37           -7.0908     3.4831    -1.1415 H       
  38 H38           -2.9646     3.7875    -0.8299 H       
@<TRIPOS>BOND
   1    1    2 ar
   2    1    7 1
   3    1    6 ar
   4    2    3 ar
   5    2   27 1
   6    3    4 ar
   7    4    5 ar
   8    4   28 1
   9    5    6 ar
  10    5   11 1
  11    6   29 1
  12    7    8 2
  13    7    9 am
  14    9   10 1
  15    9   30 1
  16   10   12 ar
  17   10   16 ar
  18   11   22 ar
  19   11   26 ar
  20   12   13 ar
  21   12   31 1
  22   13   14 ar
  23   13   32 1
  24   14   15 ar
  25   14   17 1
  26   15   16 ar
  27   15   33 1
  28   16   34 1
  29   17   18 1
  30   18   19 1
  31   18   20 1
  32   18   21 1
  33   22   23 ar
  34   22   35 1
  35   23   24 ar
  36   23   36 1
  37   24   25 ar
  38   24   37 1
  39   25   26 ar
  40   26   38 1

#	End of record

