#	Name: ASD03091667
#	Creating user name:	WinNT
#	Creation time:	15. 06. 2019 20:31

#	Modifying user name:	WinNT
#	Modification time:	15. 06. 2019 20:31

#	Program:	/corina/corina34_cracker 3.40 0067  02.08.2006

@<TRIPOS>MOLECULE
ASD03091667
  44   45    0    0    0
SMALL
NO_CHARGES


@<TRIPOS>ATOM
   1 Cl1            0.0000     0.0000     0.0000 Cl      
   2 H2             0.0000     1.3700     0.0000 H       
   3 Cl3            5.0000     6.3700     5.0000 Cl      
   4 H4             5.0000     7.7400     5.0000 H       
   5 C5            19.5216    16.7206    11.5711 C.ar    
   6 C6            19.5406    15.3194    11.5634 C.ar    
   7 C7            20.7606    14.6388    11.5480 C.ar    
   8 C8            21.9482    15.3444    11.5405 C.ar    
   9 C9            21.9312    16.7411    11.5481 C.ar    
  10 C10           20.7549    17.4179    11.5630 C.ar    
  11 S11           17.8902    14.7078    11.5764 S.3     
  12 C12           17.2344    16.3354    11.5917 C.2     
  13 C13           18.2185    17.2411    11.5920 C.2     
  14 C14           15.8022    16.6585    11.6068 C.2     
  15 O15           15.4407    17.8202    11.6163 O.2     
  16 N16           14.8880    15.6682    11.6103 N.am    
  17 N17           11.9512    15.2464    13.4055 N.3     
  18 C18           12.9997    16.2186    13.0684 C.3     
  19 C19           13.4590    15.9905    11.6255 C.3     
  20 C20           12.6623    14.8223    11.0312 C.3     
  21 C21           11.1693    15.1701    11.0864 C.3     
  22 C22           10.7733    15.4203    12.5442 C.3     
  23 C23           12.4617    13.8708    13.3267 C.3     
  24 C24           12.9063    13.5759    11.8914 C.3     
  25 N25           23.1645    14.6620    11.5256 N.pl3   
  26 H26           20.7753    13.5589    11.5425 H       
  27 H27           22.8628    17.2874    11.5425 H       
  28 H28           20.7590    18.4979    11.5684 H       
  29 H29           18.0232    18.3033    11.6004 H       
  30 H30           15.1762    14.7420    11.6028 H       
  31 H31           12.6041    17.2294    13.1687 H       
  32 H32           13.8454    16.0902    13.7439 H       
  33 H33           13.2795    16.8912    11.0383 H       
  34 H34           12.9682    14.6460    10.0000 H       
  35 H35           10.9815    16.0681    10.4977 H       
  36 H36           10.5860    14.3406    10.6867 H       
  37 H37           10.0000    14.7106    12.8380 H       
  38 H38           10.3933    16.4366    12.6486 H       
  39 H39           13.3109    13.7589    14.0008 H       
  40 H40           11.6745    13.1737    13.6141 H       
  41 H41           12.3300    12.7400    11.4950 H       
  42 H42           13.9676    13.3276    11.8816 H       
  43 H43           23.1765    13.6921    11.5207 H       
  44 H44           23.9985    15.1573    11.5203 H       
@<TRIPOS>BOND
   1    1    2 1
   2    3    4 1
   3    5    6 ar
   4    5   10 ar
   5    5   13 1
   6    6    7 ar
   7    6   11 1
   8    7    8 ar
   9    7   26 1
  10    8    9 ar
  11    8   25 1
  12    9   10 ar
  13    9   27 1
  14   10   28 1
  15   11   12 1
  16   12   13 2
  17   12   14 1
  18   13   29 1
  19   14   15 2
  20   14   16 am
  21   16   19 1
  22   16   30 1
  23   17   18 1
  24   17   22 1
  25   17   23 1
  26   18   19 1
  27   18   31 1
  28   18   32 1
  29   19   20 1
  30   19   33 1
  31   20   21 1
  32   20   24 1
  33   20   34 1
  34   21   22 1
  35   21   35 1
  36   21   36 1
  37   22   37 1
  38   22   38 1
  39   23   24 1
  40   23   39 1
  41   23   40 1
  42   24   41 1
  43   24   42 1
  44   25   43 1
  45   25   44 1

#	End of record

