#	Name: ASD01811225
#	Creating user name:	WinNT
#	Creation time:	15. 06. 2019 19:26

#	Modifying user name:	WinNT
#	Modification time:	15. 06. 2019 19:26

#	Program:	/corina/corina34_cracker 3.40 0067  02.08.2006

@<TRIPOS>MOLECULE
ASD01811225
  18   17    0    0    0
SMALL
NO_CHARGES


@<TRIPOS>ATOM
   1 C1            -0.0184     1.5028     0.0103 C.2     
   2 C2             0.0021    -0.0041     0.0020 C.3     
   3 C3             1.4513    -0.4944    -0.0145 C.3     
   4 N4             1.0915     2.1639     0.0033 N.2     
   5 N5            -1.2203     2.1751     0.0197 N.pl3   
   6 O6             1.4707    -1.9232    -0.0223 O.3     
   7 C7             2.7838    -2.4866    -0.0379 C.3     
   8 O8             1.0723     3.5797     0.0110 O.3     
   9 H9            -0.4983    -0.3791     0.8948 H       
  10 H10           -0.5153    -0.3696    -0.8850 H       
  11 H11            1.9516    -0.1193    -0.9073 H       
  12 H12            1.9686    -0.1289     0.8726 H       
  13 H13           -2.0537     1.6787     0.0209 H       
  14 H14           -1.2334     3.1450     0.0250 H       
  15 H15            3.3118    -2.1529    -0.9312 H       
  16 H16            3.3288    -2.1624     0.8487 H       
  17 H17            2.7125    -3.5743    -0.0430 H       
  18 H18            1.9502     3.9850     0.0048 H       
@<TRIPOS>BOND
   1    1    2 1
   2    1    4 2
   3    1    5 1
   4    2    3 1
   5    2    9 1
   6    2   10 1
   7    3    6 1
   8    3   11 1
   9    3   12 1
  10    4    8 1
  11    5   13 1
  12    5   14 1
  13    6    7 1
  14    7   15 1
  15    7   16 1
  16    7   17 1
  17    8   18 1

#	End of record

