#	Name: ASD01100038
#	Creating user name:	WinNT
#	Creation time:	15. 06. 2019 18:58

#	Modifying user name:	WinNT
#	Modification time:	15. 06. 2019 18:58

#	Program:	/corina/corina34_cracker 3.40 0067  02.08.2006

@<TRIPOS>MOLECULE
ASD01100038
  40   42    0    0    0
SMALL
NO_CHARGES


@<TRIPOS>ATOM
   1 C1             0.1628     1.2933    -0.9226 C.ar    
   2 C2             0.2411    -0.0862    -0.9934 C.ar    
   3 C3             1.4423    -0.7242    -0.7402 C.ar    
   4 C4             2.5633     0.0167    -0.4167 C.ar    
   5 C5             2.4845     1.3951    -0.3462 C.ar    
   6 C6             1.2845     2.0332    -0.5990 C.ar    
   7 C7             3.7070     2.2023     0.0071 C.3     
   8 C8             3.4380     3.0038     1.2823 C.3     
   9 C9             3.2228     2.0426     2.4530 C.3     
  10 C10            4.6361     3.9081     1.5785 C.3     
  11 Cl11          -1.1675    -1.0162    -1.3992 Cl      
  12 C12            4.0284     3.1474    -1.1219 C.2     
  13 N13            5.1807     3.8463    -1.1084 N.am    
  14 O14            3.2501     3.2791    -2.0425 O.2     
  15 C15            5.4395     4.7719    -2.1022 C.2     
  16 N16            6.5217     5.5006    -2.1833 N.2     
  17 C17            6.4320     6.2948    -3.2848 C.ar    
  18 C18            5.2003     6.0037    -3.8903 C.ar    
  19 O19            4.6173     5.0495    -3.1290 O.3     
  20 C20            7.2735     7.2515    -3.8544 C.ar    
  21 C21            6.8875     7.9020    -5.0068 C.ar    
  22 C22            5.6683     7.6107    -5.6021 C.ar    
  23 C23            4.8276     6.6666    -5.0487 C.ar    
  24 Cl24           7.9321     9.0928    -5.7171 Cl      
  25 H25           -0.7735     1.7922    -1.1245 H       
  26 H26            1.5039    -1.8011    -0.7950 H       
  27 H27            3.5010    -0.4813    -0.2187 H       
  28 H28            1.2235     3.1100    -0.5438 H       
  29 H29            4.5505     1.5316     0.1707 H       
  30 H30            2.5462     3.6154     1.1456 H       
  31 H31            4.1146     1.4310     2.5896 H       
  32 H32            3.0311     2.6136     3.3614 H       
  33 H33            2.3693     1.3983     2.2419 H       
  34 H34            4.8524     4.5226     0.7046 H       
  35 H35            4.4043     4.5519     2.4270 H       
  36 H36            5.5051     3.2941     1.8150 H       
  37 H37            5.8285     3.6998    -0.4014 H       
  38 H38            8.2231     7.4815    -3.3941 H       
  39 H39            5.3753     8.1264    -6.5046 H       
  40 H40            3.8802     6.4452    -5.5174 H       
@<TRIPOS>BOND
   1    1    2 ar
   2    1    6 ar
   3    1   25 1
   4    2    3 ar
   5    2   11 1
   6    3    4 ar
   7    3   26 1
   8    4    5 ar
   9    4   27 1
  10    5    6 ar
  11    5    7 1
  12    6   28 1
  13    7    8 1
  14    7   12 1
  15    7   29 1
  16    8    9 1
  17    8   10 1
  18    8   30 1
  19    9   31 1
  20    9   32 1
  21    9   33 1
  22   10   34 1
  23   10   35 1
  24   10   36 1
  25   12   13 am
  26   12   14 2
  27   13   15 1
  28   13   37 1
  29   15   16 2
  30   15   19 1
  31   16   17 1
  32   17   18 ar
  33   17   20 ar
  34   18   19 1
  35   18   23 ar
  36   20   21 ar
  37   20   38 1
  38   21   22 ar
  39   21   24 1
  40   22   23 ar
  41   22   39 1
  42   23   40 1

#	End of record

