#	Name: ASD02039302
#	Creating user name:	WinNT
#	Creation time:	15. 06. 2019 20:18

#	Modifying user name:	WinNT
#	Modification time:	15. 06. 2019 20:18

#	Program:	/corina/corina34_cracker 3.40 0067  02.08.2006

@<TRIPOS>MOLECULE
ASD02039302
  47   49    0    0    0
SMALL
NO_CHARGES


@<TRIPOS>ATOM
   1 C1            -0.2032     1.0590    -0.5281 C.ar    
   2 C2            -0.0143    -0.3047    -0.4030 C.ar    
   3 C3            -1.0572    -1.1675    -0.7103 C.ar    
   4 C4            -2.2585    -0.6271    -1.1344 C.ar    
   5 C5            -2.3791     0.7574    -1.2377 C.ar    
   6 N6            -1.3592     1.5478    -0.9294 N.ar    
   7 C7            -3.6600     1.3523    -1.6908 C.ar    
   8 C8             0.9261     1.9995    -0.1950 C.3     
   9 N9             1.6459     2.3519    -1.4214 N.am    
  10 C10            1.1494     3.4321    -2.2774 C.3     
  11 C11            2.7649     1.6824    -1.7620 C.2     
  12 C12            3.2079     0.5305    -0.9574 C.2     
  13 C13            4.2452    -0.3060    -1.2495 C.2     
  14 C14            2.2343     4.4998    -2.4322 C.3     
  15 N15            2.6619     0.1117     0.2129 N.2     
  16 C16            3.3151    -0.9334     0.6319 C.2     
  17 N17            4.3053    -1.2203    -0.2529 N.pl3   
  18 O18            3.4090     2.0291    -2.7337 O.2     
  19 C19            5.2653    -2.3218    -0.1478 C.3     
  20 C20            0.7891     2.8679    -3.6532 C.3     
  21 C21           -3.7891     2.7360    -1.7969 C.ar    
  22 C22           -4.7363     0.5290    -2.0171 C.ar    
  23 C23           -5.9258     1.0866    -2.4380 C.ar    
  24 C24           -6.0514     2.4630    -2.5370 C.ar    
  25 C25           -4.9823     3.2851    -2.2187 C.ar    
  26 F26           -7.2180     3.0049    -2.9501 F       
  27 H27            0.9359    -0.6950    -0.0696 H       
  28 H28           -0.9337    -2.2367    -0.6208 H       
  29 H29           -3.0907    -1.2693    -1.3821 H       
  30 H30            0.5235     2.9032     0.2624 H       
  31 H31            1.6102     1.5138     0.5009 H       
  32 H32            0.2637     3.8772    -1.8240 H       
  33 H33            4.8940    -0.2499    -2.1111 H       
  34 H34            3.1435     4.0404    -2.8200 H       
  35 H35            1.8915     5.2683    -3.1251 H       
  36 H36            2.4408     4.9513    -1.4619 H       
  37 H37            3.1057    -1.4820     1.5383 H       
  38 H38            4.8608    -3.2048    -0.6426 H       
  39 H39            6.2018    -2.0345    -0.6258 H       
  40 H40            5.4476    -2.5459     0.9032 H       
  41 H41           -0.0157     2.1403    -3.5481 H       
  42 H42            0.4630     3.6788    -4.3045 H       
  43 H43            1.6633     2.3826    -4.0872 H       
  44 H44           -2.9563     3.3775    -1.5490 H       
  45 H45           -4.6390    -0.5440    -1.9409 H       
  46 H46           -6.7603     0.4494    -2.6910 H       
  47 H47           -5.0847     4.3574    -2.2969 H       
@<TRIPOS>BOND
   1    1    2 ar
   2    1    8 1
   3    1    6 ar
   4    2    3 ar
   5    2   27 1
   6    3    4 ar
   7    3   28 1
   8    4    5 ar
   9    4   29 1
  10    5    6 ar
  11    5    7 1
  12    7   21 ar
  13    7   22 ar
  14    8    9 1
  15    8   30 1
  16    8   31 1
  17    9   10 1
  18    9   11 am
  19   10   20 1
  20   10   14 1
  21   10   32 1
  22   11   12 1
  23   11   18 2
  24   12   13 2
  25   12   15 1
  26   13   17 1
  27   13   33 1
  28   14   34 1
  29   14   35 1
  30   14   36 1
  31   15   16 2
  32   16   17 1
  33   16   37 1
  34   17   19 1
  35   19   38 1
  36   19   39 1
  37   19   40 1
  38   20   41 1
  39   20   42 1
  40   20   43 1
  41   21   25 ar
  42   21   44 1
  43   22   23 ar
  44   22   45 1
  45   23   24 ar
  46   23   46 1
  47   24   25 ar
  48   24   26 1
  49   25   47 1

#	End of record

