#	Name: ASD05633001
#	Creating user name:	WinNT
#	Creation time:	15. 06. 2019 21:01

#	Modifying user name:	WinNT
#	Modification time:	15. 06. 2019 21:01

#	Program:	/corina/corina34_cracker 3.40 0067  02.08.2006

@<TRIPOS>MOLECULE
ASD05633001
  31   32    0    0    0
SMALL
NO_CHARGES


@<TRIPOS>ATOM
   1 C1            -0.0167     1.3790     0.0096 C.ar    
   2 C2             0.0021    -0.0041     0.0020 C.ar    
   3 C3            -1.1822    -0.7129     0.0095 C.ar    
   4 C4            -2.3981    -0.0326     0.0248 C.ar    
   5 C5            -2.4111     1.3606     0.0324 C.ar    
   6 C6            -1.2208     2.0593     0.0305 C.ar    
   7 C7            -3.6746    -0.7893     0.0324 C.ar    
   8 C8            -4.8906    -0.1091     0.0477 C.ar    
   9 C9            -6.0748    -0.8179     0.0548 C.ar    
  10 C10           -6.0561    -2.2009     0.0472 C.ar    
  11 C11           -4.8519    -2.8813     0.0325 C.ar    
  12 C12           -3.6617    -2.1825     0.0186 C.ar    
  13 S13            1.4990     2.2775    -0.0000 S.o2    
  14 O14            1.1756     3.5170     0.6150 O.2     
  15 O15            2.4369     1.3888     0.5915 O.2     
  16 C16            1.8716     2.5177    -1.7590 C.3     
  17 C17            3.1617     3.2839    -1.8991 C.2     
  18 O18            3.7676     3.6321    -0.9135 O.2     
  19 O19            3.6377     3.5794    -3.1189 O.3     
  20 H20            0.9451    -0.5303    -0.0102 H       
  21 H21           -1.1664    -1.7927     0.0032 H       
  22 H22           -3.3508     1.8929     0.0442 H       
  23 H23           -1.2297     3.1393     0.0364 H       
  24 H24           -4.9064     0.9708     0.0543 H       
  25 H25           -7.0179    -0.2917     0.0666 H       
  26 H26           -6.9851    -2.7516     0.0532 H       
  27 H27           -4.8429    -3.9612     0.0270 H       
  28 H28           -2.7220    -2.7147     0.0068 H       
  29 H29            1.9707     1.5472    -2.2453 H       
  30 H30            1.0632     3.0783    -2.2284 H       
  31 H31            4.4687     4.0724    -3.1583 H       
@<TRIPOS>BOND
   1    1    2 ar
   2    1   13 1
   3    1    6 ar
   4    2    3 ar
   5    2   20 1
   6    3    4 ar
   7    3   21 1
   8    4    5 ar
   9    4    7 1
  10    5    6 ar
  11    5   22 1
  12    6   23 1
  13    7    8 ar
  14    7   12 ar
  15    8    9 ar
  16    8   24 1
  17    9   10 ar
  18    9   25 1
  19   10   11 ar
  20   10   26 1
  21   11   12 ar
  22   11   27 1
  23   12   28 1
  24   13   14 2
  25   13   15 2
  26   13   16 1
  27   16   17 1
  28   16   29 1
  29   16   30 1
  30   17   18 2
  31   17   19 1
  32   19   31 1

#	End of record

