#	Name: ASD03430205
#	Creating user name:	WinNT
#	Creation time:	15. 06. 2019 20:40

#	Modifying user name:	WinNT
#	Modification time:	15. 06. 2019 20:40

#	Program:	/corina/corina34_cracker 3.40 0067  02.08.2006

@<TRIPOS>MOLECULE
ASD03430205
  64   70    0    0    0
SMALL
NO_CHARGES


@<TRIPOS>ATOM
   1 C1             0.0245     1.3546     0.0231 C.ar    
   2 C2             0.0286    -0.0227     0.0233 C.ar    
   3 C3             1.2233    -0.7114     0.0437 C.ar    
   4 C4             2.4326    -0.0216     0.0729 C.ar    
   5 C5             2.4200     1.3682     0.0619 C.ar    
   6 C6             1.2186     2.0660     0.0339 C.ar    
   7 O7             3.4888    -0.8821     0.1230 O.3     
   8 C8             1.5640    -2.1769     0.0289 C.3     
   9 C9             3.0610    -2.1867    -0.3120 C.3     
  10 C10            0.4032    -3.8823     1.0609 C.ar    
  11 C11            1.2863    -2.8432     1.3439 C.ar    
  12 C12            0.7575    -2.9401    -0.9819 C.2     
  13 N13            0.1150    -3.9131    -0.3053 N.am    
  14 O14            0.6961    -2.7235    -2.1738 O.2     
  15 C15            1.7139    -2.6192     2.6331 C.ar    
  16 C16            1.2677    -3.4294     3.6625 C.ar    
  17 C17            0.3906    -4.4637     3.3932 C.ar    
  18 C18           -0.0413    -4.6922     2.1031 C.ar    
  19 C19           -0.7807    -4.8894    -0.9304 C.3     
  20 C20           -1.0997     2.3716     0.0222 C.3     
  21 C21           -0.3589     3.6681     0.4269 C.3     
  22 O22            0.9904     3.4087     0.0035 O.3     
  23 C23           -2.2037    -4.4043    -0.8263 C.ar    
  24 C24           -3.2342    -5.1232    -1.4349 C.ar    
  25 C25           -2.9337    -6.3620    -2.1833 C.2     
  26 O26           -1.7800    -6.7074    -2.3488 O.2     
  27 C27           -2.4916    -3.2523    -0.1246 C.ar    
  28 C28           -3.7978    -2.8057    -0.0276 C.ar    
  29 C29           -4.8230    -3.5104    -0.6327 C.ar    
  30 C30           -4.5494    -4.6673    -1.3332 C.ar    
  31 N31           -3.9389    -7.1085    -2.6822 N.am    
  32 C32           -3.6592    -8.3233    -3.3185 C.ar    
  33 C33           -2.4202    -8.5304    -3.9087 C.ar    
  34 C34           -2.1469    -9.7308    -4.5362 C.ar    
  35 C35           -3.1057   -10.7258    -4.5776 C.ar    
  36 C36           -4.3420   -10.5245    -3.9910 C.ar    
  37 C37           -4.6203    -9.3283    -3.3560 C.ar    
  38 F38           -5.8278    -9.1314    -2.7829 F       
  39 C39           -0.8015    -9.9554    -5.1769 C.3     
  40 H40           -0.9056    -0.5644     0.0078 H       
  41 H41            3.3534     1.9113     0.0759 H       
  42 H42            3.2129    -2.3061    -1.3847 H       
  43 H43            3.5791    -2.9689     0.2428 H       
  44 H44            2.3987    -1.8105     2.8413 H       
  45 H45            1.6042    -3.2543     4.6737 H       
  46 H46            0.0422    -5.0959     4.1966 H       
  47 H47           -0.7263    -5.5022     1.9005 H       
  48 H48           -0.5131    -5.0078    -1.9804 H       
  49 H49           -0.6854    -5.8482    -0.4209 H       
  50 H50           -1.5377     2.4673    -0.9713 H       
  51 H51           -1.8605     2.1118     0.7583 H       
  52 H52           -0.7704     4.5287    -0.1004 H       
  53 H53           -0.4031     3.8175     1.5057 H       
  54 H54           -1.6959    -2.6976     0.3505 H       
  55 H55           -4.0179    -1.9033     0.5233 H       
  56 H56           -5.8403    -3.1566    -0.5532 H       
  57 H57           -5.3506    -5.2165    -1.8052 H       
  58 H58           -4.8561    -6.8038    -2.6002 H       
  59 H59           -1.6704    -7.7538    -3.8778 H       
  60 H60           -2.8890   -11.6625    -5.0695 H       
  61 H61           -5.0889   -11.3038    -4.0254 H       
  62 H62           -0.1194   -10.3907    -4.4466 H       
  63 H63           -0.9106   -10.6348    -6.0223 H       
  64 H64           -0.4015    -9.0032    -5.5254 H       
@<TRIPOS>BOND
   1    1    2 ar
   2    1    6 ar
   3    1   20 1
   4    2    3 ar
   5    2   40 1
   6    3    4 ar
   7    3    8 1
   8    4    5 ar
   9    4    7 1
  10    5    6 ar
  11    5   41 1
  12    6   22 1
  13    7    9 1
  14    8    9 1
  15    8   11 1
  16    8   12 1
  17    9   42 1
  18    9   43 1
  19   10   11 ar
  20   10   13 1
  21   10   18 ar
  22   11   15 ar
  23   12   13 am
  24   12   14 2
  25   13   19 1
  26   15   16 ar
  27   15   44 1
  28   16   17 ar
  29   16   45 1
  30   17   18 ar
  31   17   46 1
  32   18   47 1
  33   19   23 1
  34   19   48 1
  35   19   49 1
  36   20   21 1
  37   20   50 1
  38   20   51 1
  39   21   22 1
  40   21   52 1
  41   21   53 1
  42   23   24 ar
  43   23   27 ar
  44   24   25 1
  45   24   30 ar
  46   25   26 2
  47   25   31 am
  48   27   28 ar
  49   27   54 1
  50   28   29 ar
  51   28   55 1
  52   29   30 ar
  53   29   56 1
  54   30   57 1
  55   31   32 1
  56   31   58 1
  57   32   33 ar
  58   32   37 ar
  59   33   34 ar
  60   33   59 1
  61   34   35 ar
  62   34   39 1
  63   35   36 ar
  64   35   60 1
  65   36   37 ar
  66   36   61 1
  67   37   38 1
  68   39   62 1
  69   39   63 1
  70   39   64 1

#	End of record

