#	Name: ASD01890368
#	Creating user name:	WinNT
#	Creation time:	15. 06. 2019 19:50

#	Modifying user name:	WinNT
#	Modification time:	15. 06. 2019 19:50

#	Program:	/corina/corina34_cracker 3.40 0067  02.08.2006

@<TRIPOS>MOLECULE
ASD01890368
  38   39    0    0    0
SMALL
NO_CHARGES


@<TRIPOS>ATOM
   1 C1             0.1872     1.5840    -0.0657 C.2     
   2 C2             0.1198     0.0786    -0.0744 C.3     
   3 C3             1.5366    -0.4957    -0.0141 C.3     
   4 O4             1.2585     2.1405    -0.0164 O.2     
   5 O5            -0.9428     2.3067    -0.1183 O.3     
   6 C6             1.4924    -2.6280    -1.1924 C.2     
   7 C7             1.4623    -1.8698    -2.4945 C.3     
   8 O8             1.5358    -3.8401    -1.1974 O.2     
   9 N9             1.4712    -1.9592    -0.0225 N.am    
  10 C10            1.3865    -2.6627     1.1841 C.ar    
  11 C11            2.4496    -2.6423     2.0775 C.ar    
  12 C12            2.3629    -3.3378     3.2676 C.ar    
  13 C13            1.2193    -4.0539     3.5699 C.ar    
  14 C14            0.1592    -4.0765     2.6823 C.ar    
  15 C15            0.2371    -3.3781     1.4933 C.ar    
  16 C16            1.4945    -2.8439    -3.6439 C.ar    
  17 C17            0.3126    -3.3333    -4.1680 C.ar    
  18 C18            0.3417    -4.2269    -5.2232 C.ar    
  19 C19            1.5553    -4.6309    -5.7541 C.ar    
  20 C20            2.7367    -4.1403    -5.2285 C.ar    
  21 C21            2.7056    -3.2431    -4.1772 C.ar    
  22 Cl22           1.5936    -5.7530    -7.0782 Cl      
  23 Cl23          -1.1422    -4.8422    -5.8814 Cl      
  24 H24           -0.4485    -0.2647     0.7902 H       
  25 H25           -0.3701    -0.2580    -0.9881 H       
  26 H26            2.1049    -0.1525    -0.8786 H       
  27 H27            2.0265    -0.1592     0.8996 H       
  28 H28           -0.8491     3.2691    -0.1103 H       
  29 H29            0.5503    -1.2752    -2.5476 H       
  30 H30            2.3291    -1.2115    -2.5517 H       
  31 H31            3.3432    -2.0835     1.8417 H       
  32 H32            3.1894    -3.3226     3.9626 H       
  33 H33            1.1540    -4.5969     4.5012 H       
  34 H34           -0.7325    -4.6370     2.9212 H       
  35 H35           -0.5930    -3.3923     0.8026 H       
  36 H36           -0.6335    -3.0181    -3.7533 H       
  37 H37            3.6835    -4.4550    -5.6420 H       
  38 H38            3.6282    -2.8570    -3.7697 H       
@<TRIPOS>BOND
   1    1    2 1
   2    1    4 2
   3    1    5 1
   4    2    3 1
   5    2   24 1
   6    2   25 1
   7    3    9 1
   8    3   26 1
   9    3   27 1
  10    5   28 1
  11    6    7 1
  12    6    8 2
  13    6    9 am
  14    7   16 1
  15    7   29 1
  16    7   30 1
  17    9   10 1
  18   10   11 ar
  19   10   15 ar
  20   11   12 ar
  21   11   31 1
  22   12   13 ar
  23   12   32 1
  24   13   14 ar
  25   13   33 1
  26   14   15 ar
  27   14   34 1
  28   15   35 1
  29   16   17 ar
  30   16   21 ar
  31   17   18 ar
  32   17   36 1
  33   18   19 ar
  34   18   23 1
  35   19   20 ar
  36   19   22 1
  37   20   21 ar
  38   20   37 1
  39   21   38 1

#	End of record

