#	Name: ASD01913035
#	Creating user name:	WinNT
#	Creation time:	15. 06. 2019 20:00

#	Modifying user name:	WinNT
#	Modification time:	15. 06. 2019 20:00

#	Program:	/corina/corina34_cracker 3.40 0067  02.08.2006

@<TRIPOS>MOLECULE
ASD01913035
  28   29    0    0    0
SMALL
NO_CHARGES


@<TRIPOS>ATOM
   1 C1            -0.0169     1.3952     0.0097 C.ar    
   2 C2             0.0021    -0.0041     0.0020 C.ar    
   3 C3            -1.2591    -0.7596     0.0095 C.2     
   4 C4            -1.2348    -2.2664     0.0012 C.3     
   5 O5            -2.3189    -0.1702     0.0224 O.2     
   6 C6            -2.6473    -2.7915     0.0113 C.2     
   7 C7            -2.8933    -4.2448     0.0058 C.ar    
   8 O8            -3.5813    -2.0187     0.0240 O.2     
   9 C9            -4.2042    -4.7247     0.0152 C.ar    
  10 N10           -1.8647    -5.0872    -0.0137 N.ar    
  11 C11            1.2268    -0.6810    -0.0133 C.ar    
  12 C12            2.4048     0.0329    -0.0207 C.ar    
  13 C13            2.3789     1.4198    -0.0130 C.ar    
  14 C14            1.1683     2.0970     0.0022 C.ar    
  15 C15           -4.4202    -6.0923     0.0094 C.ar    
  16 C16           -3.3178    -6.9369    -0.0057 C.ar    
  17 C17           -2.0400    -6.3889    -0.0198 C.ar    
  18 F18           -3.4854    -8.2775    -0.0119 F       
  19 F19            3.5378     2.1141    -0.0204 F       
  20 H20           -0.9588     1.9236     0.0170 H       
  21 H21           -0.7234    -2.6166    -0.8954 H       
  22 H22           -0.7071    -2.6261     0.8845 H       
  23 H23           -5.0383    -4.0387     0.0272 H       
  24 H24            1.2482    -1.7608    -0.0190 H       
  25 H25            3.3506    -0.4883    -0.0322 H       
  26 H26            1.1551     3.1769     0.0084 H       
  27 H27           -5.4230    -6.4932     0.0167 H       
  28 H28           -1.1801    -7.0422    -0.0315 H       
@<TRIPOS>BOND
   1    1    2 ar
   2    1   14 ar
   3    1   20 1
   4    2    3 1
   5    2   11 ar
   6    3    4 1
   7    3    5 2
   8    4    6 1
   9    4   21 1
  10    4   22 1
  11    6    7 1
  12    6    8 2
  13    7    9 ar
  14    7   10 ar
  15    9   15 ar
  16    9   23 1
  17   10   17 ar
  18   11   12 ar
  19   11   24 1
  20   12   13 ar
  21   12   25 1
  22   13   14 ar
  23   13   19 1
  24   14   26 1
  25   15   16 ar
  26   15   27 1
  27   16   17 ar
  28   16   18 1
  29   17   28 1

#	End of record

