#	Name: ASD03240267
#	Creating user name:	WinNT
#	Creation time:	15. 06. 2019 20:34

#	Modifying user name:	WinNT
#	Modification time:	15. 06. 2019 20:34

#	Program:	/corina/corina34_cracker 3.40 0067  02.08.2006

@<TRIPOS>MOLECULE
ASD03240267
  97  104    0    0    0
SMALL
NO_CHARGES


@<TRIPOS>ATOM
   1 C1             0.0780     1.5239     0.6304 C.2     
   2 N2             0.1826     0.2874     1.2223 N.pl3   
   3 C3            -2.6673     4.0268     0.1603 C.3     
   4 C4            -1.2356     3.5088     0.0095 C.3     
   5 N5            -1.1240     2.1912     0.6402 N.pl3   
   6 N6             1.1197     2.0660     0.0648 N.2     
   7 N7            -2.7788     5.3444    -0.4704 N.pl3   
   8 C8            -3.9929     6.0184    -0.4606 C.ar    
   9 C9            -4.0996     7.2802    -1.0646 C.ar    
  10 C10           -5.3151     7.9504    -1.0530 C.ar    
  11 C11           -6.4243     7.3648    -0.4403 C.ar    
  12 C12           -6.3086     6.1066     0.1593 C.ar    
  13 C13           -5.1040     5.4401     0.1428 C.ar    
  14 C14           -7.7183     8.0733    -0.4249 C.2     
  15 N15           -8.7891     7.5078     0.1667 N.am    
  16 O16           -7.8187     9.1675    -0.9460 O.2     
  17 C17           -9.9868     8.2254     0.2804 C.ar    
  18 C18          -11.2042     7.5642     0.1847 C.ar    
  19 C19           -9.9565     9.5971     0.4946 C.ar    
  20 C20          -11.1368    10.3045     0.6072 C.ar    
  21 C21          -12.3545     9.6441     0.5058 C.ar    
  22 C22          -12.3846     8.2713     0.2968 C.ar    
  23 N23          -13.5506    10.3607     0.6202 N.pl3   
  24 C24          -14.8349     9.6641     0.5133 C.3     
  25 C25          -13.5187    11.8076     0.8471 C.3     
  26 C26           -2.9171     7.8964    -1.7132 C.ar    
  27 C27           -1.6991     7.9663    -1.0178 C.ar    
  28 C28           -0.6013     8.5257    -1.5894 C.ar    
  29 C29           -0.6756     9.0440    -2.8945 C.ar    
  30 C30           -1.9002     8.9784    -3.6065 C.ar    
  31 C31           -3.0214     8.3922    -2.9997 C.ar    
  32 C32          -13.5103    12.5239    -0.4787 C.ar    
  33 C33          -15.2728     9.2051     1.8802 C.ar    
  34 C34          -14.6907    12.8676    -1.0624 C.ar    
  35 C35          -14.6865    13.5361    -2.2987 C.ar    
  36 C36          -13.4495    13.8421    -2.9187 C.ar    
  37 C37          -12.2509    13.4708    -2.2857 C.ar    
  38 C38          -12.2936    12.8296    -1.0860 C.ar    
  39 C39          -16.0374    10.0266     2.6500 C.ar    
  40 C40          -16.4479     9.6016     3.9252 C.ar    
  41 C41          -16.0578     8.3207     4.3895 C.ar    
  42 C42          -15.2675     7.5005     3.5661 C.ar    
  43 C43          -14.8935     7.9433     2.3348 C.ar    
  44 C44          -17.2373    10.4220     4.7491 C.ar    
  45 C45          -17.6157     9.9770     5.9783 C.ar    
  46 C46          -17.2317     8.7175     6.4350 C.ar    
  47 C47          -16.4683     7.8955     5.6645 C.ar    
  48 C48          -15.8850    13.9066    -2.9323 C.ar    
  49 C49          -15.8420    14.5525    -4.1294 C.ar    
  50 C50          -14.6254    14.8531    -4.7393 C.ar    
  51 C51          -13.4451    14.5106    -4.1549 C.ar    
  52 C52            0.4456     9.6282    -3.5079 C.ar    
  53 C53            0.3424    10.1216    -4.7723 C.ar    
  54 C54           -0.8612    10.0571    -5.4722 C.ar    
  55 C55           -1.9682     9.4989    -4.9113 C.ar    
  56 H56            1.0317    -0.1816     1.2189 H       
  57 H57           -0.5926    -0.1159     1.6433 H       
  58 H58           -3.3570     3.3338    -0.3215 H       
  59 H59           -2.9145     4.1086     1.2187 H       
  60 H60           -0.9883     3.4271    -1.0490 H       
  61 H61           -0.5458     4.2018     0.4913 H       
  62 H62           -1.8983     1.7896     1.0646 H       
  63 H63            1.0458     2.9384    -0.3528 H       
  64 H64           -2.0046     5.7460    -0.8949 H       
  65 H65           -5.4023     8.9221    -1.5163 H       
  66 H66           -7.1675     5.6549     0.6333 H       
  67 H67           -5.0199     4.4685     0.6069 H       
  68 H68           -8.7305     6.6039     0.5137 H       
  69 H69          -11.2275     6.4967     0.0222 H       
  70 H70           -9.0097    10.1106     0.5735 H       
  71 H71          -11.1133    11.3712     0.7745 H       
  72 H72          -13.3314     7.7577     0.2179 H       
  73 H73          -15.5825    10.3416     0.1007 H       
  74 H74          -14.7262     8.8002    -0.1425 H       
  75 H75          -14.3997    12.1058     1.4155 H       
  76 H76          -12.6202    12.0680     1.4065 H       
  77 H77           -1.6345     7.5703    -0.0151 H       
  78 H78            0.3282     8.5728    -1.0416 H       
  79 H79           -3.9603     8.3356    -3.5304 H       
  80 H80          -15.6258    12.6276    -0.5783 H       
  81 H81          -11.3008    13.6974    -2.7465 H       
  82 H82          -11.3711    12.5456    -0.6015 H       
  83 H83          -16.3268    11.0003     2.2831 H       
  84 H84          -14.9627     6.5221     3.9068 H       
  85 H85          -14.2865     7.3109     1.7038 H       
  86 H86          -17.5418    11.4007     4.4087 H       
  87 H87          -18.2224    10.6095     6.6094 H       
  88 H88          -17.5450     8.3888     7.4149 H       
  89 H89          -16.1786     6.9220     6.0315 H       
  90 H90          -16.8351    13.6795    -2.4718 H       
  91 H91          -16.7645    14.8361    -4.6142 H       
  92 H92          -14.6193    15.3659    -5.6898 H       
  93 H93          -12.5099    14.7503    -4.6391 H       
  94 H94            1.3851     9.6858    -2.9783 H       
  95 H95            1.2062    10.5701    -5.2402 H       
  96 H96           -0.9161    10.4564    -6.4742 H       
  97 H97           -2.8942     9.4554    -5.4654 H       
@<TRIPOS>BOND
   1    1    2 1
   2    1    6 2
   3    1    5 1
   4    2   56 1
   5    2   57 1
   6    3    4 1
   7    3    7 1
   8    3   58 1
   9    3   59 1
  10    4    5 1
  11    4   60 1
  12    4   61 1
  13    5   62 1
  14    6   63 1
  15    7    8 1
  16    7   64 1
  17    8    9 ar
  18    8   13 ar
  19    9   10 ar
  20    9   26 1
  21   10   11 ar
  22   10   65 1
  23   11   12 ar
  24   11   14 1
  25   12   13 ar
  26   12   66 1
  27   13   67 1
  28   14   15 am
  29   14   16 2
  30   15   17 1
  31   15   68 1
  32   17   18 ar
  33   17   19 ar
  34   18   22 ar
  35   18   69 1
  36   19   20 ar
  37   19   70 1
  38   20   21 ar
  39   20   71 1
  40   21   22 ar
  41   21   23 1
  42   22   72 1
  43   23   24 1
  44   23   25 1
  45   24   33 1
  46   24   73 1
  47   24   74 1
  48   25   32 1
  49   25   75 1
  50   25   76 1
  51   26   27 ar
  52   26   31 ar
  53   27   28 ar
  54   27   77 1
  55   28   29 ar
  56   28   78 1
  57   29   30 ar
  58   29   52 ar
  59   30   31 ar
  60   30   55 ar
  61   31   79 1
  62   32   34 ar
  63   32   38 ar
  64   33   39 ar
  65   33   43 ar
  66   34   35 ar
  67   34   80 1
  68   35   36 ar
  69   35   48 ar
  70   36   37 ar
  71   36   51 ar
  72   37   38 ar
  73   37   81 1
  74   38   82 1
  75   39   40 ar
  76   39   83 1
  77   40   41 ar
  78   40   44 ar
  79   41   42 ar
  80   41   47 ar
  81   42   43 ar
  82   42   84 1
  83   43   85 1
  84   44   45 ar
  85   44   86 1
  86   45   46 ar
  87   45   87 1
  88   46   47 ar
  89   46   88 1
  90   47   89 1
  91   48   49 ar
  92   48   90 1
  93   49   50 ar
  94   49   91 1
  95   50   51 ar
  96   50   92 1
  97   51   93 1
  98   52   53 ar
  99   52   94 1
 100   53   54 ar
 101   53   95 1
 102   54   55 ar
 103   54   96 1
 104   55   97 1

#	End of record

