#	Name: ASD03081358
#	Creating user name:	WinNT
#	Creation time:	15. 06. 2019 20:27

#	Modifying user name:	WinNT
#	Modification time:	15. 06. 2019 20:27

#	Program:	/corina/corina34_cracker 3.40 0067  02.08.2006

@<TRIPOS>MOLECULE
ASD03081358
  31   33    0    0    0
SMALL
NO_CHARGES


@<TRIPOS>ATOM
   1 O1            -0.0162     1.3444     0.0094 O.3     
   2 C2             0.0021    -0.0041     0.0020 C.2     
   3 N3             1.2606    -0.3805    -0.0120 N.2     
   4 N4             2.0177     0.6598    -0.0137 N.2     
   5 C5             1.2725     1.7416    -0.0007 C.2     
   6 C6             0.8547     4.2023     0.0165 C.ar    
   7 C7             1.7573     3.1373     0.0021 C.ar    
   8 C8             3.1296     3.4143    -0.0090 C.ar    
   9 C9             3.5314     4.7385    -0.0053 C.ar    
  10 C10            2.5739     5.7366     0.0092 C.ar    
  11 N11            1.2869     5.4460     0.0195 N.ar    
  12 C12           -1.0189    -2.2817    -0.0001 C.ar    
  13 C13           -1.1769    -0.8945     0.0089 C.ar    
  14 C14           -2.4715    -0.3617     0.0251 C.ar    
  15 C15           -3.5417    -1.2390     0.0314 C.ar    
  16 C16           -3.3009    -2.6009     0.0217 C.ar    
  17 N17           -2.0697    -3.0751     0.0065 N.ar    
  18 C18           -4.4640    -3.5592     0.0291 C.3     
  19 F19           -4.8380    -3.8488    -1.2875 F       
  20 F20           -4.0906    -4.7408     0.6784 F       
  21 F21           -5.5431    -2.9776     0.7032 F       
  22 C22            0.3658    -2.8758    -0.0238 C.3     
  23 H23           -0.2070     4.0044     0.0207 H       
  24 H24            3.8560     2.6151    -0.0199 H       
  25 H25            4.5817     4.9901    -0.0133 H       
  26 H26            2.8849     6.7708     0.0125 H       
  27 H27           -2.6307     0.7065     0.0328 H       
  28 H28           -4.5544    -0.8640     0.0442 H       
  29 H29            0.7152    -3.0240     0.9980 H       
  30 H30            0.3410    -3.8345    -0.5419 H       
  31 H31            1.0428    -2.1988    -0.5447 H       
@<TRIPOS>BOND
   1    1    2 1
   2    1    5 1
   3    2    3 2
   4    2   13 1
   5    3    4 1
   6    4    5 2
   7    5    7 1
   8    6    7 ar
   9    6   11 ar
  10    6   23 1
  11    7    8 ar
  12    8    9 ar
  13    8   24 1
  14    9   10 ar
  15    9   25 1
  16   10   11 ar
  17   10   26 1
  18   12   13 ar
  19   12   17 ar
  20   12   22 1
  21   13   14 ar
  22   14   15 ar
  23   14   27 1
  24   15   16 ar
  25   15   28 1
  26   16   17 ar
  27   16   18 1
  28   18   19 1
  29   18   20 1
  30   18   21 1
  31   22   29 1
  32   22   30 1
  33   22   31 1

#	End of record

