#	Name: ASD02408050
#	Creating user name:	WinNT
#	Creation time:	15. 06. 2019 20:21

#	Modifying user name:	WinNT
#	Modification time:	15. 06. 2019 20:21

#	Program:	/corina/corina34_cracker 3.40 0067  02.08.2006

@<TRIPOS>MOLECULE
ASD02408050
  46   49    0    0    0
SMALL
NO_CHARGES


@<TRIPOS>ATOM
   1 C1             2.3189     5.9814    -4.1952 C.2     
   2 C2             1.1377     6.5975    -4.2596 C.2     
   3 C3             2.8583     5.3943    -2.9163 C.3     
   4 C4             2.4086     3.9613    -2.7925 C.2     
   5 N5             2.7864     3.2513    -1.7118 N.am    
   6 N6             1.6615     3.4509    -3.7335 N.2     
   7 C7             1.2321     2.1838    -3.6764 C.2     
   8 C8             1.5934     1.3846    -2.5791 C.2     
   9 C9             2.4014     1.9657    -1.5683 C.2     
  10 N10            0.4467     1.6713    -4.6796 N.pl3   
  11 C11           -0.6837     0.7859    -4.3676 C.3     
  12 O12            2.7440     1.3175    -0.5946 O.2     
  13 S13            0.8482     7.1473    -5.9050 S.3     
  14 C14            2.3934     6.4900    -6.4284 C.2     
  15 C15            3.0093     5.9169    -5.3933 C.2     
  16 C16           -1.9481     1.3512    -5.0221 C.3     
  17 C17           -1.6990     1.5485    -6.5190 C.3     
  18 C18           -0.5598     2.5501    -6.7214 C.3     
  19 C19            0.7166     2.0025    -6.0854 C.3     
  20 O20           -1.3439     0.2972    -7.1118 O.3     
  21 C21           -2.3615    -0.7028    -7.0026 C.3     
  22 C22           -3.6445    -0.1810    -7.6587 C.3     
  23 C23           -4.0091     1.1679    -7.0289 C.3     
  24 O24           -2.8870     2.0492    -7.1370 O.3     
  25 C25            1.1545     0.0250    -2.4811 C.1     
  26 N26            0.8063    -1.0535    -2.4034 N.1     
  27 H27            0.4621     6.7371    -3.4286 H       
  28 H28            3.9475     5.4334    -2.9296 H       
  29 H29            2.4844     5.9670    -2.0676 H       
  30 H30            3.3393     3.6671    -1.0319 H       
  31 H31           -0.4849    -0.2120    -4.7583 H       
  32 H32           -0.8221     0.7369    -3.2875 H       
  33 H33            2.7819     6.5389    -7.4349 H       
  34 H34            3.9769     5.4453    -5.4815 H       
  35 H35           -2.7741     0.6544    -4.8796 H       
  36 H36           -2.1969     2.3091    -4.5655 H       
  37 H37           -0.3981     2.7063    -7.7880 H       
  38 H38           -0.8206     3.4976    -6.2500 H       
  39 H39            1.5038     2.7544    -6.1402 H       
  40 H40            1.0309     1.1023    -6.6135 H       
  41 H41           -2.0361    -1.6114    -7.5092 H       
  42 H42           -2.5508    -0.9174    -5.9509 H       
  43 H43           -3.4813    -0.0522    -8.7287 H       
  44 H44           -4.4542    -0.8918    -7.4938 H       
  45 H45           -4.8622     1.5972    -7.5542 H       
  46 H46           -4.2602     1.0240    -5.9780 H       
@<TRIPOS>BOND
   1    1    2 2
   2    1    3 1
   3    1   15 1
   4    2   13 1
   5    2   27 1
   6    3    4 1
   7    3   28 1
   8    3   29 1
   9    4    5 1
  10    4    6 2
  11    5    9 am
  12    5   30 1
  13    6    7 1
  14    7    8 2
  15    7   10 1
  16    8    9 1
  17    8   25 1
  18    9   12 2
  19   10   11 1
  20   10   19 1
  21   11   16 1
  22   11   31 1
  23   11   32 1
  24   13   14 1
  25   14   15 2
  26   14   33 1
  27   15   34 1
  28   16   17 1
  29   16   35 1
  30   16   36 1
  31   17   18 1
  32   17   20 1
  33   17   24 1
  34   18   19 1
  35   18   37 1
  36   18   38 1
  37   19   39 1
  38   19   40 1
  39   20   21 1
  40   21   22 1
  41   21   41 1
  42   21   42 1
  43   22   23 1
  44   22   43 1
  45   22   44 1
  46   23   24 1
  47   23   45 1
  48   23   46 1
  49   25   26 3

#	End of record

