#	Name: ASD07320001
#	Creating user name:	WinNT
#	Creation time:	15. 06. 2019 21:11

#	Modifying user name:	WinNT
#	Modification time:	15. 06. 2019 21:11

#	Program:	/corina/corina34_cracker 3.40 0067  02.08.2006

@<TRIPOS>MOLECULE
ASD07320001
  69   73    0    0    0
SMALL
NO_CHARGES


@<TRIPOS>ATOM
   1 C1             2.8335     0.6925     1.9054 C.ar    
   2 C2             3.1313    -0.6160     2.2475 C.ar    
   3 O3             2.1954    -1.5914     2.1590 O.3     
   4 C4             1.1023    -1.4177     1.3779 C.ar    
   5 C5             0.6963    -0.1519     0.9893 C.ar    
   6 C6             1.4573     1.0704     1.4293 C.3     
   7 C7             0.3802    -2.5317     0.9643 C.ar    
   8 C8            -0.7374    -2.3775     0.1694 C.ar    
   9 C9            -1.1409    -1.1117    -0.2181 C.ar    
  10 C10           -0.4245    -0.0023     0.1911 C.ar    
  11 C11            3.8079     1.6701     2.0059 C.ar    
  12 C12            5.0773     1.3452     2.4470 C.ar    
  13 C13            5.3772     0.0383     2.7896 C.ar    
  14 C14            4.4088    -0.9399     2.6908 C.ar    
  15 Cl15           6.2950     2.5762     2.5704 Cl      
  16 Cl16          -2.5462    -0.9169    -1.2186 Cl      
  17 C17            0.7063     1.7477     2.5465 C.2     
  18 N18            1.1985     2.8711     3.1052 N.am    
  19 O19           -0.3410     1.2820     2.9428 O.2     
  20 C20            0.4685     3.5296     4.1913 C.3     
  21 C21            1.4452     4.3431     5.0454 C.3     
  22 C22            0.6657     5.0912     6.1291 C.3     
  23 N23           -0.3072     5.9938     5.5021 N.4     
  24 C24           -1.2900     5.2147     4.7396 C.3     
  25 C25           -0.5858     4.4713     3.6024 C.3     
  26 C26           -0.9982     6.7660     6.5434 C.3     
  27 C27            0.3937     6.9148     4.5975 C.3     
  28 I28            1.8156     8.0898     5.7252 I       
  29 C29           -1.8119     5.8177     7.4263 C.3     
  30 C30           -1.8849     6.3713     8.7703 C.3     
  31 C31           -2.6346     5.4437     9.7483 C.3     
  32 C32           -4.1138     5.6265     9.5417 C.3     
  33 C33           -4.7040     4.5954     8.5608 C.3     
  34 C34           -3.7999     4.3487     7.3379 C.3     
  35 C35           -3.2054     5.6201     6.7954 C.3     
  36 H36            1.5482     1.7588     0.5891 H       
  37 H37            0.6945    -3.5199     1.2660 H       
  38 H38           -1.2967    -3.2443    -0.1503 H       
  39 H39           -0.7410     0.9846    -0.1125 H       
  40 H40            3.5761     2.6905     1.7385 H       
  41 H41            6.3688    -0.2160     3.1338 H       
  42 H42            4.6439    -1.9596     2.9580 H       
  43 H43            2.0362     3.2436     2.7883 H       
  44 H44           -0.0188     2.7773     4.8116 H       
  45 H45            2.1658     3.6721     5.5130 H       
  46 H46            1.9706     5.0600     4.4145 H       
  47 H47            0.1410     4.3734     6.7596 H       
  48 H48            1.3582     5.6712     6.7392 H       
  49 H49           -1.7731     4.4942     5.3997 H       
  50 H50           -2.0415     5.8859     4.3237 H       
  51 H51           -0.1026     5.1909     2.9415 H       
  52 H52           -1.3170     3.8920     3.0385 H       
  53 H53           -0.2637     7.2908     7.1543 H       
  54 H54           -1.6658     7.4899     6.0760 H       
  55 H55            0.9199     6.3431     3.8331 H       
  56 H56           -0.3294     7.5776     4.1221 H       
  57 H57           -1.3052     4.8536     7.4687 H       
  58 H58           -0.8727     6.5315     9.1416 H       
  59 H59           -2.3999     7.3311     8.7293 H       
  60 H60           -2.3627     4.4068     9.5507 H       
  61 H61           -2.3731     5.7046    10.7738 H       
  62 H62           -4.6189     5.5284    10.5026 H       
  63 H63           -4.2942     6.6281     9.1513 H       
  64 H64           -4.8483     3.6520     9.0873 H       
  65 H65           -5.6733     4.9542     8.2147 H       
  66 H66           -2.9917     3.6767     7.6267 H       
  67 H67           -4.3890     3.8723     6.5542 H       
  68 H68           -3.8467     6.4631     7.0527 H       
  69 H69           -3.1098     5.5465     5.7121 H       
@<TRIPOS>BOND
   1    1    2 ar
   2    1   11 ar
   3    1    6 1
   4    2    3 1
   5    2   14 ar
   6    3    4 1
   7    4    5 ar
   8    4    7 ar
   9    5    6 1
  10    5   10 ar
  11    6   17 1
  12    6   36 1
  13    7    8 ar
  14    7   37 1
  15    8    9 ar
  16    8   38 1
  17    9   10 ar
  18    9   16 1
  19   10   39 1
  20   11   12 ar
  21   11   40 1
  22   12   13 ar
  23   12   15 1
  24   13   14 ar
  25   13   41 1
  26   14   42 1
  27   17   18 am
  28   17   19 2
  29   18   20 1
  30   18   43 1
  31   20   21 1
  32   20   25 1
  33   20   44 1
  34   21   22 1
  35   21   45 1
  36   21   46 1
  37   22   23 1
  38   22   47 1
  39   22   48 1
  40   23   24 1
  41   23   26 1
  42   23   27 1
  43   24   25 1
  44   24   49 1
  45   24   50 1
  46   25   51 1
  47   25   52 1
  48   26   29 1
  49   26   53 1
  50   26   54 1
  51   27   28 1
  52   27   55 1
  53   27   56 1
  54   29   30 1
  55   29   35 1
  56   29   57 1
  57   30   31 1
  58   30   58 1
  59   30   59 1
  60   31   32 1
  61   31   60 1
  62   31   61 1
  63   32   33 1
  64   32   62 1
  65   32   63 1
  66   33   34 1
  67   33   64 1
  68   33   65 1
  69   34   35 1
  70   34   66 1
  71   34   67 1
  72   35   68 1
  73   35   69 1

#	End of record

