#	Name: ASD02560384
#	Creating user name:	WinNT
#	Creation time:	15. 06. 2019 20:25

#	Modifying user name:	WinNT
#	Modification time:	15. 06. 2019 20:25

#	Program:	/corina/corina34_cracker 3.40 0067  02.08.2006

@<TRIPOS>MOLECULE
ASD02560384
  37   40    0    0    0
SMALL
NO_CHARGES


@<TRIPOS>ATOM
   1 C1            -0.0170     1.4022     0.0098 C.2     
   2 C2             0.0021    -0.0041     0.0020 C.2     
   3 C3             1.1743    -0.6696    -0.0123 C.2     
   4 N4             2.3612     0.0114    -0.0195 N.pl3   
   5 C5             2.3736     1.3873    -0.0127 C.2     
   6 C6             1.1535     2.0938     0.0023 C.2     
   7 C7             3.6659    -0.4006    -0.0340 C.2     
   8 C8             4.4368     0.7161    -0.0358 C.2     
   9 N9             3.6353     1.7872    -0.0227 N.2     
  10 C10            5.9435     0.7449    -0.0496 C.3     
  11 N11            4.1201    -1.7252    -0.0446 N.3     
  12 C12            2.9936    -2.6680    -0.0388 C.3     
  13 C13            3.5203    -4.0800    -0.0505 C.ar    
  14 C14            3.7729    -4.7333     1.1413 C.ar    
  15 C15            4.2560    -6.0285     1.1305 C.ar    
  16 C16            4.4860    -6.6704    -0.0719 C.ar    
  17 C17            4.2326    -6.0174    -1.2636 C.ar    
  18 C18            3.7454    -4.7238    -1.2529 C.ar    
  19 C19            6.6260     1.4425    -1.2279 C.3     
  20 C20            6.6261     2.0989     0.1541 C.3     
  21 H21           -0.9586     1.9311     0.0171 H       
  22 H22           -0.9275    -0.5538     0.0079 H       
  23 H23            1.1768    -1.7496    -0.0178 H       
  24 H24            1.1487     3.1738     0.0074 H       
  25 H25            6.4344    -0.1344     0.3677 H       
  26 H26            4.7278    -1.8928    -0.8325 H       
  27 H27            2.3935    -2.5115     0.8576 H       
  28 H28            2.3770    -2.5029    -0.9223 H       
  29 H29            3.5931    -4.2318     2.0807 H       
  30 H30            4.4540    -6.5387     2.0616 H       
  31 H31            4.8642    -7.6820    -0.0803 H       
  32 H32            4.4127    -6.5188    -2.2031 H       
  33 H33            3.5473    -4.2136    -2.1839 H       
  34 H34            7.5660     1.0224    -1.5856 H       
  35 H35            5.9852     1.8806    -1.9931 H       
  36 H36            5.9854     2.9689     0.2981 H       
  37 H37            7.5662     2.1107     0.7056 H       
@<TRIPOS>BOND
   1    1    2 1
   2    1    6 2
   3    1   21 1
   4    2    3 2
   5    2   22 1
   6    3    4 1
   7    3   23 1
   8    4    5 1
   9    4    7 1
  10    5    6 1
  11    5    9 2
  12    6   24 1
  13    7    8 2
  14    7   11 1
  15    8    9 1
  16    8   10 1
  17   10   19 1
  18   10   20 1
  19   10   25 1
  20   11   12 1
  21   11   26 1
  22   12   13 1
  23   12   27 1
  24   12   28 1
  25   13   14 ar
  26   13   18 ar
  27   14   15 ar
  28   14   29 1
  29   15   16 ar
  30   15   30 1
  31   16   17 ar
  32   16   31 1
  33   17   18 ar
  34   17   32 1
  35   18   33 1
  36   19   20 1
  37   19   34 1
  38   19   35 1
  39   20   36 1
  40   20   37 1

#	End of record

