#	Name: ASD03470018
#	Creating user name:	WinNT
#	Creation time:	15. 06. 2019 20:42

#	Modifying user name:	WinNT
#	Modification time:	15. 06. 2019 20:42

#	Program:	/corina/corina34_cracker 3.40 0067  02.08.2006

@<TRIPOS>MOLECULE
ASD03470018
  18   19    0    0    0
SMALL
NO_CHARGES


@<TRIPOS>ATOM
   1 C1            -0.0169     1.3940     0.0097 C.ar    
   2 C2             0.0021    -0.0041     0.0020 C.ar    
   3 C3             2.3797     1.4297    -0.0134 C.ar    
   4 C4             2.9004    -2.0916    -0.4488 C.3     
   5 C5             1.1670     2.0986     0.0022 C.ar    
   6 C6             1.2280    -0.6806    -0.0133 C.ar    
   7 C7             2.4161     0.0455    -0.0207 C.ar    
   8 O8            -1.2423    -1.9769     0.0037 O.2     
   9 O9            -2.4400    -0.1076     0.0256 O.3     
  10 O10            1.5273    -2.0092    -0.0232 O.3     
  11 O11            3.4622    -0.8319    -0.0365 O.3     
  12 C12           -1.2622    -0.7620     0.0105 C.2     
  13 H13           -0.9593     1.9215     0.0170 H       
  14 H14            3.3023     1.9910    -0.0196 H       
  15 H15            3.4067    -2.9186     0.0489 H       
  16 H16            2.9599    -2.2006    -1.5317 H       
  17 H17            1.1493     3.1784     0.0081 H       
  18 H18           -3.2422    -0.6476     0.0307 H       
@<TRIPOS>BOND
   1    1    2 ar
   2    1    5 ar
   3    1   13 1
   4    2    6 ar
   5    2   12 1
   6    3    5 ar
   7    3    7 ar
   8    3   14 1
   9    4   10 1
  10    4   11 1
  11    4   15 1
  12    4   16 1
  13    5   17 1
  14    6    7 ar
  15    6   10 1
  16    7   11 1
  17    8   12 2
  18    9   12 1
  19    9   18 1

#	End of record

