#	Name: ASD02560028
#	Creating user name:	WinNT
#	Creation time:	15. 06. 2019 20:24

#	Modifying user name:	WinNT
#	Modification time:	15. 06. 2019 20:24

#	Program:	/corina/corina34_cracker 3.40 0067  02.08.2006

@<TRIPOS>MOLECULE
ASD02560028
  38   41    0    0    0
SMALL
NO_CHARGES


@<TRIPOS>ATOM
   1 C1            -0.0166     1.3751     0.0096 C.ar    
   2 C2             0.0021    -0.0041     0.0020 C.ar    
   3 C3             1.2211    -0.6833    -0.0131 C.ar    
   4 C4             2.4137     0.0471    -0.0380 C.ar    
   5 C5             2.3824     1.4230    -0.0216 C.ar    
   6 C6             1.1690     2.0888     0.0021 C.ar    
   7 C7             1.5588    -2.1205    -0.0039 C.2     
   8 N8             2.8837    -2.2822     0.1401 N.am    
   9 C9             3.5224    -0.9630    -0.1047 C.3     
  10 C10            3.9383    -3.2375     0.5150 C.3     
  11 C11            4.7863    -2.6163     1.6541 C.3     
  12 S12            4.6377    -0.8125     1.3405 S.3     
  13 C13            4.2598    -0.9141    -1.4180 C.ar    
  14 C14            5.3036    -0.0246    -1.5919 C.ar    
  15 C15            5.9800     0.0202    -2.7966 C.ar    
  16 C16            5.6130    -0.8247    -3.8273 C.ar    
  17 C17            4.5698    -1.7148    -3.6531 C.ar    
  18 C18            3.8962    -1.7627    -2.4469 C.ar    
  19 C19            4.1693    -2.6357    -4.7768 C.3     
  20 C20            7.1173     0.9906    -2.9865 C.3     
  21 O21            0.7545    -3.0255    -0.1111 O.2     
  22 H22           -0.9604     1.9001     0.0169 H       
  23 H23           -0.9253    -0.5575     0.0081 H       
  24 H24            3.3054     1.9837    -0.0267 H       
  25 H25            1.1475     3.1685     0.0146 H       
  26 H26            3.4854    -4.1670     0.8600 H       
  27 H27            4.5739    -3.4391    -0.3473 H       
  28 H28            4.3711    -2.8738     2.6284 H       
  29 H29            5.8256    -2.9363     1.5797 H       
  30 H30            5.5904     0.6355    -0.7867 H       
  31 H31            6.1410    -0.7892    -4.7687 H       
  32 H32            3.0812    -2.4581    -2.3108 H       
  33 H33            4.7339    -3.5651    -4.7036 H       
  34 H34            3.1032    -2.8517    -4.7071 H       
  35 H35            4.3812    -2.1561    -5.7325 H       
  36 H36            8.0525     0.5173    -2.6875 H       
  37 H37            7.1761     1.2807    -4.0356 H       
  38 H38            6.9458     1.8757    -2.3739 H       
@<TRIPOS>BOND
   1    1    2 ar
   2    1    6 ar
   3    1   22 1
   4    2    3 ar
   5    2   23 1
   6    3    4 ar
   7    3    7 1
   8    4    5 ar
   9    4    9 1
  10    5    6 ar
  11    5   24 1
  12    6   25 1
  13    7    8 am
  14    7   21 2
  15    8    9 1
  16    8   10 1
  17    9   13 1
  18    9   12 1
  19   10   11 1
  20   10   26 1
  21   10   27 1
  22   11   12 1
  23   11   28 1
  24   11   29 1
  25   13   14 ar
  26   13   18 ar
  27   14   15 ar
  28   14   30 1
  29   15   16 ar
  30   15   20 1
  31   16   17 ar
  32   16   31 1
  33   17   18 ar
  34   17   19 1
  35   18   32 1
  36   19   33 1
  37   19   34 1
  38   19   35 1
  39   20   36 1
  40   20   37 1
  41   20   38 1

#	End of record

