#	Name: ASD01880634
#	Creating user name:	WinNT
#	Creation time:	15. 06. 2019 19:41

#	Modifying user name:	WinNT
#	Modification time:	15. 06. 2019 19:41

#	Program:	/corina/corina34_cracker 3.40 0067  02.08.2006

@<TRIPOS>MOLECULE
ASD01880634
  43   47    0    0    0
SMALL
NO_CHARGES


@<TRIPOS>ATOM
   1 C1            -0.0169     1.3925     0.0097 C.ar    
   2 C2             0.0021    -0.0041     0.0020 C.ar    
   3 C3             1.2133    -0.6906    -0.0132 C.ar    
   4 C4             2.4024     0.0197    -0.0208 C.ar    
   5 C5             2.3728     1.4247    -0.0130 C.ar    
   6 C6             1.1525     2.0998     0.0023 C.ar    
   7 N7             3.6287    -0.6372    -0.0355 N.pl3   
   8 C8             4.7931     0.0691    -0.0425 C.2     
   9 N9             4.8019     1.4564    -0.0353 N.am    
  10 C10            3.6506     2.1589    -0.0210 C.2     
  11 N11            3.9493    -2.0022    -0.0451 N.2     
  12 C12            5.2606    -2.1198    -0.0575 C.2     
  13 C13            5.8181    -0.8299    -0.0562 C.2     
  14 O14            3.6667     3.3754    -0.0151 O.2     
  15 C15           -1.2744    -0.7595     0.0106 C.ar    
  16 C16            6.0194    -3.3951    -0.0711 C.ar    
  17 C17           -2.5031    -0.0931     0.0264 C.ar    
  18 C18           -3.6668    -0.8348     0.0335 C.ar    
  19 N19           -3.6295    -2.1533     0.0256 N.ar    
  20 C20           -2.4917    -2.8206     0.0107 C.ar    
  21 C21           -1.2816    -2.1573    -0.0027 C.ar    
  22 C22            5.3411    -4.6122    -0.0720 C.ar    
  23 C23            7.4125    -3.3797    -0.0889 C.ar    
  24 C24            8.1131    -4.5687    -0.1019 C.ar    
  25 C25            7.4348    -5.7742    -0.0979 C.ar    
  26 C26            6.0518    -5.7953    -0.0851 C.ar    
  27 C27            6.0817     2.1695    -0.0430 C.3     
  28 H28           -0.9612     1.9165     0.0170 H       
  29 H29            1.2256    -1.7705    -0.0188 H       
  30 H30            1.1316     3.1796     0.0080 H       
  31 H31            6.8716    -0.5927    -0.0649 H       
  32 H32           -2.5411     0.9862     0.0333 H       
  33 H33           -4.6209    -0.3289     0.0461 H       
  34 H34           -2.5074    -3.9005     0.0051 H       
  35 H35           -0.3538    -2.7100    -0.0152 H       
  36 H36            4.2613    -4.6299    -0.0620 H       
  37 H37            7.9432    -2.4390    -0.0928 H       
  38 H38            9.1930    -4.5579    -0.1157 H       
  39 H39            7.9870    -6.7023    -0.1085 H       
  40 H40            5.5271    -6.7393    -0.0820 H       
  41 H41            6.3899     2.3517    -1.0725 H       
  42 H42            5.9705     3.1211     0.4768 H       
  43 H43            6.8368     1.5662     0.4610 H       
@<TRIPOS>BOND
   1    1    2 ar
   2    1    6 ar
   3    1   28 1
   4    2    3 ar
   5    2   15 1
   6    3    4 ar
   7    3   29 1
   8    4    5 ar
   9    4    7 1
  10    5    6 ar
  11    5   10 1
  12    6   30 1
  13    7    8 1
  14    7   11 1
  15    8    9 1
  16    8   13 2
  17    9   10 am
  18    9   27 1
  19   10   14 2
  20   11   12 2
  21   12   13 1
  22   12   16 1
  23   13   31 1
  24   15   17 ar
  25   15   21 ar
  26   16   22 ar
  27   16   23 ar
  28   17   18 ar
  29   17   32 1
  30   18   19 ar
  31   18   33 1
  32   19   20 ar
  33   20   21 ar
  34   20   34 1
  35   21   35 1
  36   22   26 ar
  37   22   36 1
  38   23   24 ar
  39   23   37 1
  40   24   25 ar
  41   24   38 1
  42   25   26 ar
  43   25   39 1
  44   26   40 1
  45   27   41 1
  46   27   42 1
  47   27   43 1

#	End of record

