#	Name: ASD00843593
#	Creating user name:	WinNT
#	Creation time:	15. 06. 2019 18:47

#	Modifying user name:	WinNT
#	Modification time:	15. 06. 2019 18:47

#	Program:	/corina/corina34_cracker 3.40 0067  02.08.2006

@<TRIPOS>MOLECULE
ASD00843593
  93   98    0    0    0
SMALL
NO_CHARGES


@<TRIPOS>ATOM
   1 F1             5.7384    -2.5321    -1.8761 F       
   2 N2             0.9964     1.0774    -0.1903 N.ar    
   3 C3             1.1498    -0.2012    -0.4915 C.ar    
   4 C4             0.9696    -1.1826     0.4750 C.ar    
   5 C5             0.6265    -0.8056     1.7615 C.ar    
   6 C6             0.4749     0.5466     2.0370 C.ar    
   7 C7             0.6696     1.4676     1.0272 C.ar    
   8 C8             1.1450    -2.6383     0.1271 C.3     
   9 C9             0.7578    -3.5142     1.2995 C.2     
  10 C10            0.3147    -2.9968    -1.1070 C.3     
  11 C11           -1.1243    -2.6157    -0.8724 C.2     
  12 N12           -2.0645    -2.9414    -1.7814 N.am    
  13 O13           -1.4363    -2.0158     0.1345 O.2     
  14 C14           -3.4537    -2.4833    -1.6280 C.3     
  15 C15           -3.8955    -1.8214    -2.9375 C.3     
  16 N16           -3.6672    -2.7497    -4.0530 N.3     
  17 C17           -2.2383    -3.0521    -4.2106 C.3     
  18 C18           -1.7273    -3.7593    -2.9564 C.3     
  19 C19           -4.2345    -2.2224    -5.3012 C.3     
  20 C20           -3.8706    -3.1526    -6.4617 C.3     
  21 C21           -4.5150    -2.6313    -7.7482 C.3     
  22 N22           -5.9728    -2.5768    -7.5797 N.3     
  23 C23           -6.3485    -1.6531    -6.5017 C.3     
  24 C24           -5.7588    -2.1452    -5.1780 C.3     
  25 C25           -6.6351    -2.2128    -8.8394 C.3     
  26 O26           -0.3356    -3.5784     1.8206 O.2     
  27 N27            1.8527    -4.2076     1.6542 N.am    
  28 C28            2.6048    -2.9556    -0.1029 C.ar    
  29 C29            2.9539    -3.9032     0.8512 C.ar    
  30 C30            3.5297    -2.4961    -1.0134 C.ar    
  31 C31            4.8277    -2.9799    -0.9843 C.ar    
  32 C32            5.1885    -3.9259    -0.0367 C.ar    
  33 C33            4.2599    -4.3868     0.8767 C.ar    
  34 F34            6.4536    -4.3991    -0.0066 F       
  35 C35            1.4698    -6.8713     2.2306 C.ar    
  36 C36            2.4616    -7.7027     1.7439 C.ar    
  37 C37            0.1479    -7.2753     2.1976 C.ar    
  38 C38           -0.1851    -8.5113     1.6781 C.ar    
  39 C39            0.8082    -9.3474     1.1891 C.ar    
  40 C40            2.1337    -8.9394     1.2229 C.ar    
  41 O41            0.4832   -10.5639     0.6780 O.3     
  42 H42            3.4934    -7.3848     1.7707 H       
  43 C43            1.5575   -11.3716     0.1926 C.3     
  44 C44           -8.1459    -2.4073    -8.6960 C.3     
  45 C45           -8.8357    -2.0282   -10.0081 C.3     
  46 O46            1.4859    -0.5578    -1.7567 O.3     
  47 C47            1.6096     0.4941    -2.7161 C.3     
  48 C48            2.0922    -0.0844    -4.0477 C.3     
  49 F49            3.2934    -0.7734    -3.8488 F       
  50 F50            1.1278    -0.9641    -4.5509 F       
  51 S51            1.8919    -5.2973     2.9005 S.o2    
  52 O52            3.2490    -5.3873     3.3123 O.2     
  53 O53            0.8350    -4.9390     3.7801 O.2     
  54 H54            0.4795    -1.5464     2.5335 H       
  55 H55            0.2073     0.8746     3.0306 H       
  56 H56            0.5533     2.5207     1.2364 H       
  57 H57            0.6975    -2.4556    -1.9723 H       
  58 H58            0.3812    -4.0692    -1.2907 H       
  59 H59           -4.0985    -3.3353    -1.4126 H       
  60 H60           -3.5131    -1.7605    -0.8142 H       
  61 H61           -4.9557    -1.5747    -2.8808 H       
  62 H62           -3.3179    -0.9110    -3.0979 H       
  63 H63           -2.0967    -3.6979    -5.0772 H       
  64 H64           -1.6838    -2.1246    -4.3532 H       
  65 H65           -0.6462    -3.8828    -3.0205 H       
  66 H66           -2.2053    -4.7346    -2.8656 H       
  67 H67           -3.8327    -1.2273    -5.4922 H       
  68 H68           -2.7876    -3.1782    -6.5817 H       
  69 H69           -4.2380    -4.1572    -6.2519 H       
  70 H70           -4.1368    -1.6323    -7.9649 H       
  71 H71           -4.2696    -3.2994    -8.5738 H       
  72 H72           -5.9617    -0.6587    -6.7242 H       
  73 H73           -7.4347    -1.6107    -6.4219 H       
  74 H74           -6.1558    -3.1339    -4.9479 H       
  75 H75           -6.0248    -1.4511    -4.3807 H       
  76 H76           -6.4236    -1.1693    -9.0728 H       
  77 H77           -6.2616    -2.8477    -9.6429 H       
  78 H78            3.2438    -1.7595    -1.7497 H       
  79 H79            4.5475    -5.1234     1.6124 H       
  80 H80           -0.6250    -6.6243     2.5788 H       
  81 H81           -1.2177    -8.8266     1.6530 H       
  82 H82            2.9088    -9.5886     0.8432 H       
  83 H83            2.0740   -10.8452    -0.6100 H       
  84 H84            2.2567   -11.5723     1.0043 H       
  85 H85            1.1612   -12.3135    -0.1868 H       
  86 H86           -8.3573    -3.4508    -8.4626 H       
  87 H87           -8.5193    -1.7724    -7.8926 H       
  88 H88           -8.6242    -0.9847   -10.2415 H       
  89 H89           -8.4622    -2.6632   -10.8115 H       
  90 H90           -9.9120    -2.1668    -9.9059 H       
  91 H91            0.6404     0.9724    -2.8577 H       
  92 H92            2.3291     1.2301    -2.3575 H       
  93 H93            2.2516     0.7258    -4.7593 H       
@<TRIPOS>BOND
   1    1   31 1
   2    2    3 ar
   3    2    7 ar
   4    3    4 ar
   5    3   46 1
   6    4    5 ar
   7    4    8 1
   8    5    6 ar
   9    5   54 1
  10    6    7 ar
  11    6   55 1
  12    7   56 1
  13    8    9 1
  14    8   10 1
  15    8   28 1
  16    9   26 2
  17    9   27 am
  18   10   11 1
  19   10   57 1
  20   10   58 1
  21   11   12 am
  22   11   13 2
  23   12   14 1
  24   12   18 1
  25   14   15 1
  26   14   59 1
  27   14   60 1
  28   15   16 1
  29   15   61 1
  30   15   62 1
  31   16   17 1
  32   16   19 1
  33   17   18 1
  34   17   63 1
  35   17   64 1
  36   18   65 1
  37   18   66 1
  38   19   20 1
  39   19   24 1
  40   19   67 1
  41   20   21 1
  42   20   68 1
  43   20   69 1
  44   21   22 1
  45   21   70 1
  46   21   71 1
  47   22   23 1
  48   22   25 1
  49   23   24 1
  50   23   72 1
  51   23   73 1
  52   24   74 1
  53   24   75 1
  54   25   44 1
  55   25   76 1
  56   25   77 1
  57   27   51 am
  58   27   29 1
  59   28   29 ar
  60   28   30 ar
  61   29   33 ar
  62   30   31 ar
  63   30   78 1
  64   31   32 ar
  65   32   33 ar
  66   32   34 1
  67   33   79 1
  68   35   36 ar
  69   35   37 ar
  70   35   51 1
  71   36   42 1
  72   36   40 ar
  73   37   38 ar
  74   37   80 1
  75   38   39 ar
  76   38   81 1
  77   39   40 ar
  78   39   41 1
  79   40   82 1
  80   41   43 1
  81   43   83 1
  82   43   84 1
  83   43   85 1
  84   44   45 1
  85   44   86 1
  86   44   87 1
  87   45   88 1
  88   45   89 1
  89   45   90 1
  90   46   47 1
  91   47   48 1
  92   47   91 1
  93   47   92 1
  94   48   49 1
  95   48   50 1
  96   48   93 1
  97   51   52 2
  98   51   53 2

#	End of record

