#	Name: ASD03330417
#	Creating user name:	WinNT
#	Creation time:	15. 06. 2019 20:37

#	Modifying user name:	WinNT
#	Modification time:	15. 06. 2019 20:37

#	Program:	/corina/corina34_cracker 3.40 0067  02.08.2006

@<TRIPOS>MOLECULE
ASD03330417
  58   60    0    0    0
SMALL
NO_CHARGES


@<TRIPOS>ATOM
   1 C1            -0.2978     2.1312    -0.7624 C.3     
   2 N2            -0.1317     0.6977    -0.4844 N.3     
   3 C3             0.3275    -0.0280    -1.6825 C.3     
   4 C4             1.5145     0.7095    -2.2465 C.2     
   5 N5             1.8445     1.9871    -1.8998 N.pl3   
   6 C6             1.0765     2.7888    -0.9432 C.3     
   7 C7             2.4352     0.2875    -3.1499 C.2     
   8 N8             3.3136     1.2957    -3.3456 N.2     
   9 C9             2.9657     2.3226    -2.5959 C.2     
  10 C10            3.6506     3.5782    -2.5256 C.1     
  11 C11            2.4708    -1.0342    -3.8011 C.2     
  12 O12            1.6196    -1.8631    -3.5415 O.2     
  13 C13            3.4821    -2.6379    -5.3317 C.3     
  14 N14            3.4467    -1.3242    -4.6844 N.am    
  15 C15            3.4003    -3.8389    -3.1423 C.3     
  16 C16            4.2084    -3.6337    -4.4252 C.3     
  17 C17            4.3578    -4.9711    -5.1533 C.3     
  18 C18            4.2113    -2.5307    -6.6462 C.2     
  19 C19            5.5935    -3.0870    -4.0736 C.3     
  20 C20           -1.3745     0.1157     0.0396 C.3     
  21 O21            4.8037    -1.5111    -6.9296 O.2     
  22 N22            4.2052    -3.5680    -7.5067 N.am    
  23 C23            4.9801    -3.4946    -8.7478 C.3     
  24 C24            4.2122     4.6076    -2.4678 C.1     
  25 C25            4.8972     5.8631    -2.3975 C.ar    
  26 C26            4.4294     6.8849    -1.5589 C.ar    
  27 C27            6.0469     6.0895    -3.1590 C.ar    
  28 N28            6.6763     7.2442    -3.0932 N.ar    
  29 C29            6.2554     8.2243    -2.3168 C.ar    
  30 C30            5.1280     8.0781    -1.5277 C.ar    
  31 H31           -0.8827     2.2582    -1.6734 H       
  32 H32           -0.8188     2.6037     0.0702 H       
  33 H33            0.6193    -1.0422    -1.4098 H       
  34 H34           -0.4719    -0.0604    -2.4228 H       
  35 H35            0.9523     3.8011    -1.3278 H       
  36 H36            1.5983     2.8195     0.0134 H       
  37 H37            2.4635    -2.9834    -5.5084 H       
  38 H38            4.1256    -0.6630    -4.8914 H       
  39 H39            2.4136    -4.2284    -3.3928 H       
  40 H40            3.9178    -4.5483    -2.4965 H       
  41 H41            3.2939    -2.8862    -2.6237 H       
  42 H42            3.3735    -5.4141    -5.3049 H       
  43 H43            4.8354    -4.8075    -6.1193 H       
  44 H44            4.9710    -5.6443    -4.5543 H       
  45 H45            6.1109    -3.7964    -3.4278 H       
  46 H46            6.1691    -2.9408    -4.9875 H       
  47 H47            5.4870    -2.1342    -3.5549 H       
  48 H48           -2.1870     0.3011    -0.6629 H       
  49 H49           -1.2455    -0.9587     0.1705 H       
  50 H50           -1.6131     0.5727     1.0000 H       
  51 H51            3.6877    -4.3630    -7.3043 H       
  52 H52            6.0347    -3.3560    -8.5100 H       
  53 H53            4.8530    -4.4194    -9.3107 H       
  54 H54            4.6290    -2.6539    -9.3462 H       
  55 H55            3.5463     6.7439    -0.9534 H       
  56 H56            6.4225     5.3109    -3.8064 H       
  57 H57            6.8024     9.1552    -2.2936 H       
  58 H58            4.7947     8.8890    -0.8971 H       
@<TRIPOS>BOND
   1    1    2 1
   2    1    6 1
   3    1   31 1
   4    1   32 1
   5    2    3 1
   6    2   20 1
   7    3    4 1
   8    3   33 1
   9    3   34 1
  10    4    5 1
  11    4    7 2
  12    5    6 1
  13    5    9 1
  14    6   35 1
  15    6   36 1
  16    7    8 1
  17    7   11 1
  18    8    9 2
  19    9   10 1
  20   10   24 3
  21   11   12 2
  22   11   14 am
  23   13   14 1
  24   13   18 1
  25   13   16 1
  26   13   37 1
  27   14   38 1
  28   15   16 1
  29   15   39 1
  30   15   40 1
  31   15   41 1
  32   16   19 1
  33   16   17 1
  34   17   42 1
  35   17   43 1
  36   17   44 1
  37   18   21 2
  38   18   22 am
  39   19   45 1
  40   19   46 1
  41   19   47 1
  42   20   48 1
  43   20   49 1
  44   20   50 1
  45   22   23 1
  46   22   51 1
  47   23   52 1
  48   23   53 1
  49   23   54 1
  50   24   25 1
  51   25   26 ar
  52   25   27 ar
  53   26   30 ar
  54   26   55 1
  55   27   28 ar
  56   27   56 1
  57   28   29 ar
  58   29   30 ar
  59   29   57 1
  60   30   58 1

#	End of record

