#	Name: ASD02508090
#	Creating user name:	WinNT
#	Creation time:	15. 06. 2019 20:23

#	Modifying user name:	WinNT
#	Modification time:	15. 06. 2019 20:23

#	Program:	/corina/corina34_cracker 3.40 0067  02.08.2006

@<TRIPOS>MOLECULE
ASD02508090
  34   36    0    0    0
SMALL
NO_CHARGES


@<TRIPOS>ATOM
   1 C1             3.8529    -0.9643    -4.1684 C.ar    
   2 C2             4.7879    -1.5893    -3.3288 C.ar    
   3 C3             2.8178    -0.2491    -3.5654 C.ar    
   4 C4             2.7079    -0.1538    -2.1899 C.ar    
   5 C5             3.6422    -0.7793    -1.3773 C.ar    
   6 C6             4.6809    -1.4956    -1.9618 C.ar    
   7 N7             3.8228    -0.9580    -5.5538 N.am    
   8 C8             2.8382    -0.2965    -6.1694 C.2     
   9 S9             1.8363     0.4011    -4.8859 S.3     
  10 N10            3.5412    -0.6892     0.0152 N.am    
  11 S11            3.7024    -2.0489     0.9467 S.o2    
  12 C12            2.3710    -3.1259     0.5322 C.ar    
  13 C13            1.0654    -2.7618     0.8287 C.ar    
  14 O14            2.6662    -0.1920    -7.3699 O.2     
  15 O15            4.8912    -2.6946     0.5119 O.2     
  16 O16            3.4859    -1.6423     2.2910 O.2     
  17 C17            2.6258    -4.3308    -0.0933 C.ar    
  18 C18            1.5805    -5.1771    -0.4190 C.ar    
  19 C19            0.2785    -4.8183    -0.1191 C.ar    
  20 C20            0.0190    -3.6113     0.5014 C.ar    
  21 O21            0.8122    -1.5742     1.4395 O.3     
  22 Cl22           1.9033    -6.6906    -1.2056 Cl      
  23 C23           -0.5419    -1.3130     1.8140 C.3     
  24 H24            5.6017    -2.1514    -3.7625 H       
  25 H25            1.8966     0.4067    -1.7494 H       
  26 H26            5.4112    -1.9850    -1.3343 H       
  27 H27            4.5023    -1.4237    -6.0660 H       
  28 H28            3.3769     0.1696     0.4350 H       
  29 H29            3.6416    -4.6124    -0.3285 H       
  30 H30           -0.5361    -5.4799    -0.3744 H       
  31 H31           -0.9975    -3.3318     0.7358 H       
  32 H32           -1.1837    -1.3951     0.9368 H       
  33 H33           -0.8576    -2.0379     2.5643 H       
  34 H34           -0.6172    -0.3069     2.2264 H       
@<TRIPOS>BOND
   1    1    2 ar
   2    1    3 ar
   3    1    7 1
   4    2    6 ar
   5    2   24 1
   6    3    4 ar
   7    3    9 1
   8    4    5 ar
   9    4   25 1
  10    5    6 ar
  11    5   10 1
  12    6   26 1
  13    7    8 am
  14    7   27 1
  15    8    9 1
  16    8   14 2
  17   10   11 am
  18   10   28 1
  19   11   12 1
  20   11   15 2
  21   11   16 2
  22   12   13 ar
  23   12   17 ar
  24   13   21 1
  25   13   20 ar
  26   17   18 ar
  27   17   29 1
  28   18   19 ar
  29   18   22 1
  30   19   20 ar
  31   19   30 1
  32   20   31 1
  33   21   23 1
  34   23   32 1
  35   23   33 1
  36   23   34 1

#	End of record

