#	Name: ASD01910623
#	Creating user name:	WinNT
#	Creation time:	15. 06. 2019 19:56

#	Modifying user name:	WinNT
#	Modification time:	15. 06. 2019 19:56

#	Program:	/corina/corina34_cracker 3.40 0067  02.08.2006

@<TRIPOS>MOLECULE
ASD01910623
  43   46    0    0    0
SMALL
NO_CHARGES


@<TRIPOS>ATOM
   1 C1             0.0306     1.3036    -0.0464 C.ar    
   2 C2             0.0634    -0.0822    -0.0566 C.ar    
   3 C3             1.2772    -0.7518    -0.0653 C.ar    
   4 C4             2.4590    -0.0418    -0.0644 C.ar    
   5 C5             2.4318     1.3542    -0.0546 C.ar    
   6 C6             1.2064     2.0235    -0.0454 C.ar    
   7 C7             3.6950     2.1204    -0.0535 C.2     
   8 N8             3.8203     3.4360    -0.0448 N.2     
   9 C9             5.1415     3.6713    -0.0477 C.2     
  10 N10            5.7466     2.5203    -0.0577 N.2     
  11 O11            4.9386     1.6158    -0.0554 O.3     
  12 C12            5.8042     5.0248    -0.0410 C.3     
  13 C13            6.6807     5.1582     1.2064 C.3     
  14 C14            7.3283     6.5447     1.2310 C.3     
  15 C15            8.2179     6.7103    -0.0051 C.3     
  16 N16            7.4147     6.4407    -1.2054 N.am    
  17 C17            6.6765     5.1732    -1.2915 C.3     
  18 C18            7.3561     7.3389    -2.2085 C.2     
  19 C19            8.0280     8.6501    -2.0679 C.ar    
  20 O20            6.7515     7.0723    -3.2284 O.2     
  21 F21           -1.0917    -0.7829    -0.0576 F       
  22 C22            9.3885     8.7309    -1.7539 C.ar    
  23 C23            9.9756     9.9749    -1.6327 C.ar    
  24 N24            9.2731    11.0766    -1.8078 N.ar    
  25 C25            7.9898    11.0489    -2.1044 C.ar    
  26 C26            7.3207     9.8452    -2.2512 C.ar    
  27 F27            6.0046     9.8242    -2.5559 F       
  28 H28           -0.9178     1.8203    -0.0438 H       
  29 H29            1.2972    -1.8316    -0.0725 H       
  30 H30            3.4041    -0.5644    -0.0708 H       
  31 H31            1.1797     3.1031    -0.0382 H       
  32 H32            5.0413     5.8033    -0.0345 H       
  33 H33            6.0665     5.0285     2.0975 H       
  34 H34            7.4583     4.3946     1.1872 H       
  35 H35            6.5514     7.3092     1.2252 H       
  36 H36            7.9339     6.6474     2.1315 H       
  37 H37            8.6029     7.7293    -0.0443 H       
  38 H38            9.0480     6.0056     0.0450 H       
  39 H39            7.3808     4.3432    -1.3463 H       
  40 H40            6.0444     5.1781    -2.1795 H       
  41 H41            9.9714     7.8335    -1.6081 H       
  42 H42           11.0256    10.0463    -1.3905 H       
  43 H43            7.4536    11.9767    -2.2391 H       
@<TRIPOS>BOND
   1    1    2 ar
   2    1    6 ar
   3    1   28 1
   4    2    3 ar
   5    2   21 1
   6    3    4 ar
   7    3   29 1
   8    4    5 ar
   9    4   30 1
  10    5    6 ar
  11    5    7 1
  12    6   31 1
  13    7    8 2
  14    7   11 1
  15    8    9 1
  16    9   10 2
  17    9   12 1
  18   10   11 1
  19   12   13 1
  20   12   17 1
  21   12   32 1
  22   13   14 1
  23   13   33 1
  24   13   34 1
  25   14   15 1
  26   14   35 1
  27   14   36 1
  28   15   16 1
  29   15   37 1
  30   15   38 1
  31   16   17 1
  32   16   18 am
  33   17   39 1
  34   17   40 1
  35   18   19 1
  36   18   20 2
  37   19   22 ar
  38   19   26 ar
  39   22   23 ar
  40   22   41 1
  41   23   24 ar
  42   23   42 1
  43   24   25 ar
  44   25   26 ar
  45   25   43 1
  46   26   27 1

#	End of record

