#	Name: ASD04230070
#	Creating user name:	WinNT
#	Creation time:	15. 06. 2019 20:48

#	Modifying user name:	WinNT
#	Modification time:	15. 06. 2019 20:48

#	Program:	/corina/corina34_cracker 3.40 0067  02.08.2006

@<TRIPOS>MOLECULE
ASD04230070
  56   60    0    0    0
SMALL
NO_CHARGES


@<TRIPOS>ATOM
   1 C1             1.5396     4.8119     1.4792 C.ar    
   2 C2             2.5429     5.5107     2.1351 C.ar    
   3 C3             3.7924     4.9754     2.2639 C.ar    
   4 C4             4.0721     3.7130     1.7210 C.ar    
   5 C5             3.0501     2.9865     1.0835 C.ar    
   6 C6             1.7842     3.5545     0.9562 C.ar    
   7 C7             5.3764     3.1615     1.8141 C.2     
   8 C8             5.6478     2.0078     1.0905 C.2     
   9 C9             4.5614     1.4644     0.2549 C.2     
  10 O10            3.2881     1.7370     0.6176 O.3     
  11 C11            6.9658     1.3547     1.1546 C.2     
  12 N12            7.1988     0.2357     0.4404 N.am    
  13 O13            7.8443     1.8250     1.8521 O.2     
  14 C14            8.4829    -0.3176     0.4067 C.ar    
  15 C15            8.6442    -1.6964     0.3466 C.ar    
  16 C16            9.9116    -2.2468     0.3126 C.ar    
  17 C17           11.0242    -1.4302     0.3387 C.ar    
  18 C18           10.8719    -0.0457     0.3994 C.ar    
  19 C19            9.5958     0.5100     0.4274 C.ar    
  20 C20           12.0667     0.8334     0.4280 C.ar    
  21 O21            4.8033     0.7919    -0.7299 O.2     
  22 C22           13.3441     0.2767     0.3941 C.ar    
  23 C23           14.4529     1.0962     0.4203 C.ar    
  24 C24           14.2976     2.4748     0.4808 C.ar    
  25 C25           13.0263     3.0321     0.5146 C.ar    
  26 C26           11.9139     2.2177     0.4829 C.ar    
  27 O27           15.3917     3.2797     0.5074 O.3     
  28 C28           15.6237     4.0038     1.6335 C.ar    
  29 C29           14.8225     3.8250     2.7522 C.ar    
  30 C30           15.0608     4.5621     3.8959 C.ar    
  31 C31           16.0964     5.4777     3.9265 C.ar    
  32 C32           16.8961     5.6581     2.8130 C.ar    
  33 C33           16.6659     4.9192     1.6688 C.ar    
  34 O34            0.7924     2.8752     0.3206 O.3     
  35 C35           -0.4794     3.5201     0.2281 C.3     
  36 F36           -0.3418     4.7248    -0.4697 F       
  37 F37           -1.3760     2.6878    -0.4505 F       
  38 F38           -0.9656     3.7791     1.5141 F       
  39 H39            0.5580     5.2514     1.3800 H       
  40 H40            2.3338     6.4869     2.5470 H       
  41 H41            4.5645     5.5238     2.7831 H       
  42 H42            6.1344     3.6248     2.4283 H       
  43 H43            6.4760    -0.1859    -0.0502 H       
  44 H44            7.7769    -2.3397     0.3267 H       
  45 H45           10.0317    -3.3191     0.2659 H       
  46 H46           12.0129    -1.8639     0.3123 H       
  47 H47            9.4727     1.5820     0.4741 H       
  48 H48           13.4654    -0.7954     0.3478 H       
  49 H49           15.4429     0.6654     0.3941 H       
  50 H50           12.9085     4.1047     0.5617 H       
  51 H51           10.9253     2.6518     0.5089 H       
  52 H52           14.0130     3.1105     2.7286 H       
  53 H53           14.4374     4.4233     4.7669 H       
  54 H54           16.2809     6.0532     4.8216 H       
  55 H55           17.7042     6.3742     2.8394 H       
  56 H56           17.2911     5.0602     0.7995 H       
@<TRIPOS>BOND
   1    1    2 ar
   2    1    6 ar
   3    1   39 1
   4    2    3 ar
   5    2   40 1
   6    3    4 ar
   7    3   41 1
   8    4    5 ar
   9    4    7 1
  10    5    6 ar
  11    5   10 1
  12    6   34 1
  13    7    8 2
  14    7   42 1
  15    8    9 1
  16    8   11 1
  17    9   10 1
  18    9   21 2
  19   11   12 am
  20   11   13 2
  21   12   14 1
  22   12   43 1
  23   14   15 ar
  24   14   19 ar
  25   15   16 ar
  26   15   44 1
  27   16   17 ar
  28   16   45 1
  29   17   18 ar
  30   17   46 1
  31   18   19 ar
  32   18   20 1
  33   19   47 1
  34   20   22 ar
  35   20   26 ar
  36   22   23 ar
  37   22   48 1
  38   23   24 ar
  39   23   49 1
  40   24   25 ar
  41   24   27 1
  42   25   26 ar
  43   25   50 1
  44   26   51 1
  45   27   28 1
  46   28   29 ar
  47   28   33 ar
  48   29   30 ar
  49   29   52 1
  50   30   31 ar
  51   30   53 1
  52   31   32 ar
  53   31   54 1
  54   32   33 ar
  55   32   55 1
  56   33   56 1
  57   34   35 1
  58   35   36 1
  59   35   37 1
  60   35   38 1

#	End of record

