#	Name: ASD01917906
#	Creating user name:	WinNT
#	Creation time:	15. 06. 2019 20:10

#	Modifying user name:	WinNT
#	Modification time:	15. 06. 2019 20:10

#	Program:	/corina/corina34_cracker 3.40 0067  02.08.2006

@<TRIPOS>MOLECULE
ASD01917906
  39   42    0    0    0
SMALL
NO_CHARGES


@<TRIPOS>ATOM
   1 C1             0.0036     0.6800    -1.4390 C.2     
   2 C2            -0.2299    -0.6447    -1.3858 C.2     
   3 C3            -1.5163    -1.2368    -0.8307 C.3     
   4 C4            -2.2134    -0.1913     0.0430 C.3     
   5 N5            -2.2393     1.0936    -0.6721 N.am    
   6 C6            -0.9501     1.7482    -0.9553 C.3     
   7 C7            -3.4039     1.6536    -1.0549 C.2     
   8 O8            -4.4484     1.0499    -0.9014 O.2     
   9 S9             1.5892     0.9441    -2.1509 S.3     
  10 C10            1.8058    -0.7437    -2.3122 C.2     
  11 N11            0.7726    -1.3674    -1.8664 N.2     
  12 C12            3.0291    -1.4051    -2.8928 C.3     
  13 O13            2.8589    -1.5680    -4.3023 O.3     
  14 C14            3.8790    -2.1532    -4.9833 C.ar    
  15 C15            3.7808    -2.3426    -6.3542 C.ar    
  16 C16            4.8191    -2.9378    -7.0442 C.ar    
  17 C17            5.9555    -3.3446    -6.3697 C.ar    
  18 C18            6.0556    -3.1574    -5.0035 C.ar    
  19 C19            5.0227    -2.5571    -4.3098 C.ar    
  20 C20           -3.4117     2.9965    -1.6592 C.2     
  21 N21           -4.2630     3.4216    -2.5530 N.2     
  22 C22           -4.0953     4.6517    -2.9618 C.2     
  23 C23           -3.0688     5.3161    -2.4082 C.2     
  24 S24           -2.2787     4.2925    -1.2881 S.3     
  25 H25           -2.1722    -1.5196    -1.6540 H       
  26 H26           -1.2832    -2.1164    -0.2305 H       
  27 H27           -3.2337    -0.5127     0.2519 H       
  28 H28           -1.6674    -0.0763     0.9794 H       
  29 H29           -0.5618     2.2100    -0.0475 H       
  30 H30           -1.0808     2.5043    -1.7296 H       
  31 H31            3.9036    -0.7831    -2.7019 H       
  32 H32            3.1693    -2.3813    -2.4285 H       
  33 H33            2.8932    -2.0253    -6.8814 H       
  34 H34            4.7430    -3.0857    -8.1113 H       
  35 H35            6.7661    -3.8097    -6.9110 H       
  36 H36            6.9440    -3.4767    -4.4788 H       
  37 H37            5.1013    -2.4111    -3.2426 H       
  38 H38           -4.7392     5.1035    -3.7018 H       
  39 H39           -2.7891     6.3352    -2.6309 H       
@<TRIPOS>BOND
   1    1    2 2
   2    1    9 1
   3    1    6 1
   4    2    3 1
   5    2   11 1
   6    3    4 1
   7    3   25 1
   8    3   26 1
   9    4    5 1
  10    4   27 1
  11    4   28 1
  12    5    6 1
  13    5    7 am
  14    6   29 1
  15    6   30 1
  16    7    8 2
  17    7   20 1
  18    9   10 1
  19   10   11 2
  20   10   12 1
  21   12   13 1
  22   12   31 1
  23   12   32 1
  24   13   14 1
  25   14   15 ar
  26   14   19 ar
  27   15   16 ar
  28   15   33 1
  29   16   17 ar
  30   16   34 1
  31   17   18 ar
  32   17   35 1
  33   18   19 ar
  34   18   36 1
  35   19   37 1
  36   20   21 2
  37   20   24 1
  38   21   22 1
  39   22   23 2
  40   22   38 1
  41   23   24 1
  42   23   39 1

#	End of record

