#	Name: ASD01917017
#	Creating user name:	WinNT
#	Creation time:	15. 06. 2019 20:08

#	Modifying user name:	WinNT
#	Modification time:	15. 06. 2019 20:08

#	Program:	/corina/corina34_cracker 3.40 0067  02.08.2006

@<TRIPOS>MOLECULE
ASD01917017
  28   30    0    0    0
SMALL
NO_CHARGES


@<TRIPOS>ATOM
   1 C1            -0.0168     1.3906     0.0097 C.ar    
   2 C2             0.0021    -0.0041     0.0020 C.ar    
   3 C3             1.2530     2.1507     0.0016 C.2     
   4 N4             2.4634     1.6343    -0.0131 N.2     
   5 C5             3.3723     2.6155    -0.0169 C.2     
   6 N6             2.7500     3.7746    -0.0045 N.2     
   7 N7             1.3731     3.4987     0.0023 N.pl3   
   8 C8             4.8445     2.4272    -0.0320 C.ar    
   9 C9             5.6903     3.5337    -0.0345 C.ar    
  10 C10            5.3849     1.1428    -0.0381 C.ar    
  11 C11            6.7543     0.9719    -0.0523 C.ar    
  12 C12            7.5915     2.0727    -0.0605 C.ar    
  13 C13            7.0609     3.3522    -0.0487 C.ar    
  14 C14           -1.1847    -0.7085     0.0096 C.ar    
  15 C15           -2.3924    -0.0351     0.0248 C.ar    
  16 C16           -2.4191     1.3505     0.0320 C.ar    
  17 C17           -1.2371     2.0662     0.0192 C.ar    
  18 F18           -3.6024     2.0023     0.0460 F       
  19 F19            7.8835     4.4240    -0.0568 F       
  20 H20            0.9442    -0.5320    -0.0102 H       
  21 H21            0.6509     4.1463     0.0111 H       
  22 H22            5.2765     4.5313    -0.0257 H       
  23 H23            4.7328     0.2819    -0.0314 H       
  24 H24            7.1731    -0.0235    -0.0566 H       
  25 H25            8.6626     1.9343    -0.0715 H       
  26 H26           -1.1701    -1.7884     0.0033 H       
  27 H27           -3.3183    -0.5910     0.0307 H       
  28 H28           -1.2580     3.1460     0.0248 H       
@<TRIPOS>BOND
   1    1    2 ar
   2    1    3 1
   3    1   17 ar
   4    2   14 ar
   5    2   20 1
   6    3    4 2
   7    3    7 1
   8    4    5 1
   9    5    6 2
  10    5    8 1
  11    6    7 1
  12    7   21 1
  13    8    9 ar
  14    8   10 ar
  15    9   13 ar
  16    9   22 1
  17   10   11 ar
  18   10   23 1
  19   11   12 ar
  20   11   24 1
  21   12   13 ar
  22   12   25 1
  23   13   19 1
  24   14   15 ar
  25   14   26 1
  26   15   16 ar
  27   15   27 1
  28   16   17 ar
  29   16   18 1
  30   17   28 1

#	End of record

