#	Name: ASD01840102
#	Creating user name:	WinNT
#	Creation time:	15. 06. 2019 19:37

#	Modifying user name:	WinNT
#	Modification time:	15. 06. 2019 19:37

#	Program:	/corina/corina34_cracker 3.40 0067  02.08.2006

@<TRIPOS>MOLECULE
ASD01840102
  50   54    0    0    0
SMALL
NO_CHARGES


@<TRIPOS>ATOM
   1 C1             0.0851     1.5079     0.1424 C.ar    
   2 N2             0.2749     0.4817     0.9580 N.ar    
   3 C3             1.4245    -0.1687     0.9831 C.ar    
   4 N4             2.4321     0.1622     0.2096 N.ar    
   5 C5             1.1422     1.9076    -0.7155 C.ar    
   6 C6             1.2080     2.9785    -1.6920 C.2     
   7 C7             2.3366     1.1858    -0.6488 C.ar    
   8 S8             3.4942     1.8537    -1.7902 S.3     
   9 C9             2.3590     3.0771    -2.3285 C.2     
  10 C10            0.0508     3.9061    -1.9589 C.3     
  11 C11            2.6599     4.1091    -3.3846 C.3     
  12 N12           -1.1261     2.1757     0.1233 N.3     
  13 C13           -2.2183     1.2735    -0.2633 C.3     
  14 C14           -3.5136     2.0743    -0.4152 C.3     
  15 C15           -3.8410     2.7628     0.9127 C.3     
  16 C16           -2.6672     3.6591     1.3169 C.3     
  17 C17           -1.3965     2.8124     1.4186 C.3     
  18 O18           -5.0187     3.5577     0.7608 O.3     
  19 C19           -5.7426     3.8096     1.8841 C.ar    
  20 C20           -7.6899     4.7367     2.9352 C.ar    
  21 C21           -6.9556     4.4761     1.7968 C.ar    
  22 C22           -5.2740     3.3959     3.1236 C.ar    
  23 C23           -7.2205     4.3322     4.1820 C.ar    
  24 O24           -7.7699     4.4991     5.4175 O.3     
  25 C25           -6.0110     3.6535     4.2578 C.ar    
  26 C26           -5.7788     3.3204     5.7190 C.3     
  27 C27           -7.1815     3.5545     6.3279 C.3     
  28 H28            1.5393    -1.0000     1.6629 H       
  29 H29            0.0759     4.7322    -1.2482 H       
  30 H30            0.1252     4.2973    -2.9735 H       
  31 H31           -0.8859     3.3598    -1.8479 H       
  32 H32            3.0784     4.9989    -2.9143 H       
  33 H33            3.3785     3.7021    -4.0960 H       
  34 H34            1.7405     4.3728    -3.9073 H       
  35 H35           -1.9748     0.7936    -1.2112 H       
  36 H36           -2.3500     0.5123     0.5057 H       
  37 H37           -3.3871     2.8267    -1.1937 H       
  38 H38           -4.3274     1.4020    -0.6869 H       
  39 H39           -4.0059     2.0092     1.6828 H       
  40 H40           -2.5274     4.4364     0.5657 H       
  41 H41           -2.8763     4.1190     2.2827 H       
  42 H42           -1.5321     2.0440     2.1797 H       
  43 H43           -0.5560     3.4502     1.6923 H       
  44 H44           -8.6333     5.2569     2.8589 H       
  45 H45           -7.3269     4.7928     0.8333 H       
  46 H46           -4.3324     2.8722     3.1981 H       
  47 H47           -5.4713     2.2814     5.8374 H       
  48 H48           -5.0451     3.9950     6.1603 H       
  49 H49           -7.1021     3.9802     7.3282 H       
  50 H50           -7.7543     2.6273     6.3459 H       
@<TRIPOS>BOND
   1    1    2 ar
   2    1    5 ar
   3    1   12 1
   4    2    3 ar
   5    3    4 ar
   6    3   28 1
   7    4    7 ar
   8    5    7 ar
   9    5    6 1
  10    6    9 2
  11    6   10 1
  12    7    8 1
  13    8    9 1
  14    9   11 1
  15   10   29 1
  16   10   30 1
  17   10   31 1
  18   11   32 1
  19   11   33 1
  20   11   34 1
  21   12   13 1
  22   12   17 1
  23   13   14 1
  24   13   35 1
  25   13   36 1
  26   14   15 1
  27   14   37 1
  28   14   38 1
  29   15   16 1
  30   15   18 1
  31   15   39 1
  32   16   17 1
  33   16   40 1
  34   16   41 1
  35   17   42 1
  36   17   43 1
  37   18   19 1
  38   19   22 ar
  39   19   21 ar
  40   20   21 ar
  41   20   23 ar
  42   20   44 1
  43   21   45 1
  44   22   25 ar
  45   22   46 1
  46   23   25 ar
  47   23   24 1
  48   24   27 1
  49   25   26 1
  50   26   27 1
  51   26   47 1
  52   26   48 1
  53   27   49 1
  54   27   50 1

#	End of record

