#	Name: ASD00111053
#	Creating user name:	WinNT
#	Creation time:	15. 06. 2019 18:30

#	Modifying user name:	WinNT
#	Modification time:	15. 06. 2019 18:30

#	Program:	/corina/corina34_cracker 3.40 0067  02.08.2006

@<TRIPOS>MOLECULE
ASD00111053
  30   31    0    0    0
SMALL
NO_CHARGES


@<TRIPOS>ATOM
   1 C1            -0.0652     1.2261     0.3108 C.ar    
   2 C2            -0.1052    -0.1566     0.3209 C.ar    
   3 C3            -1.3206    -0.8064     0.2539 C.ar    
   4 C4            -2.5029    -0.0822     0.1768 C.ar    
   5 C5            -2.4637     1.2918     0.1447 C.ar    
   6 C6            -1.2407     1.9459     0.2280 C.ar    
   7 C7            -3.7983    -0.8501     0.1609 C.3     
   8 C8            -4.6979    -0.3667    -0.9799 C.3     
   9 N9            -5.5845     0.6701    -0.4483 N.3     
  10 C10           -4.9220     1.4550     0.6014 C.3     
  11 C11           -3.6993     2.1454    -0.0010 C.3     
  12 C12           -3.4742     3.4796     0.7132 C.3     
  13 Cl13           1.4575     2.0539     0.4093 Cl      
  14 C14           -4.6545     4.4126     0.4349 C.3     
  15 H15            0.8111    -0.7252     0.3805 H       
  16 H16           -1.3526    -1.8859     0.2611 H       
  17 H17           -1.2087     3.0254     0.2197 H       
  18 H18           -3.5856    -1.9107     0.0261 H       
  19 H19           -4.3134    -0.7056     1.1106 H       
  20 H20           -4.0861     0.0471    -1.7815 H       
  21 H21           -5.2904    -1.1990    -1.3598 H       
  22 H22           -5.9249     1.2680    -1.1863 H       
  23 H23           -5.6121     2.2051     0.9877 H       
  24 H24           -4.6077     0.7938     1.4089 H       
  25 H25           -3.8806     2.3339    -1.0591 H       
  26 H26           -3.3920     3.3079     1.7865 H       
  27 H27           -2.5552     3.9372     0.3471 H       
  28 H28           -4.7366     4.5843    -0.6383 H       
  29 H29           -5.5735     3.9550     0.8011 H       
  30 H30           -4.4941     5.3631     0.9437 H       
@<TRIPOS>BOND
   1    1    2 ar
   2    1   13 1
   3    1    6 ar
   4    2    3 ar
   5    2   15 1
   6    3    4 ar
   7    3   16 1
   8    4    5 ar
   9    4    7 1
  10    5    6 ar
  11    5   11 1
  12    6   17 1
  13    7    8 1
  14    7   18 1
  15    7   19 1
  16    8    9 1
  17    8   20 1
  18    8   21 1
  19    9   10 1
  20    9   22 1
  21   10   11 1
  22   10   23 1
  23   10   24 1
  24   11   12 1
  25   11   25 1
  26   12   14 1
  27   12   26 1
  28   12   27 1
  29   14   28 1
  30   14   29 1
  31   14   30 1

#	End of record

