#	Name: ASD01882802
#	Creating user name:	WinNT
#	Creation time:	15. 06. 2019 19:45

#	Modifying user name:	WinNT
#	Modification time:	15. 06. 2019 19:45

#	Program:	/corina/corina34_cracker 3.40 0067  02.08.2006

@<TRIPOS>MOLECULE
ASD01882802
  42   43    0    0    0
SMALL
NO_CHARGES


@<TRIPOS>ATOM
   1 C1            -0.0168     1.3851     0.0097 C.ar    
   2 C2             0.0021    -0.0041     0.0020 C.ar    
   3 C3            -1.1841    -0.7168     0.0100 C.ar    
   4 C4            -2.3927    -0.0522     0.0255 C.ar    
   5 C5            -2.4210     1.3438     0.0333 C.ar    
   6 C6            -1.2244     2.0613     0.0306 C.ar    
   7 C7            -3.7153     2.0596     0.0495 C.2     
   8 C8            -4.1061     2.8609    -1.0404 C.2     
   9 C9            -5.2928     3.5096    -1.0113 C.2     
  10 N10           -6.1277     3.4081     0.0543 N.am    
  11 C11           -5.8083     2.6576     1.1250 C.2     
  12 C12           -4.5815     1.9486     1.1505 C.2     
  13 C13           -7.4022     4.1304     0.0387 C.3     
  14 C14           -8.4849     3.2412    -0.5761 C.3     
  15 C15           -9.8159     3.9956    -0.5924 C.3     
  16 C16           -9.7061     5.2034    -1.5252 C.3     
  17 O17           -6.5759     2.5836     2.0693 O.2     
  18 C18           -4.2257     1.1455     2.2815 C.1     
  19 N19           -3.9434     0.5084     3.1786 N.1     
  20 C20          -10.9234     3.0652    -1.0910 C.3     
  21 O21            1.1511     2.0804     0.0022 O.3     
  22 C22            1.0573     3.5063     0.0108 C.3     
  23 Br23           1.6541    -0.9240    -0.0200 Br      
  24 H24           -1.1635    -1.7966     0.0036 H       
  25 H25           -3.3167    -0.6113     0.0314 H       
  26 H26           -1.2404     3.1411     0.0366 H       
  27 H27           -3.4585     2.9578    -1.8993 H       
  28 H28           -5.5819     4.1213    -1.8531 H       
  29 H29           -7.6835     4.3930     1.0585 H       
  30 H30           -7.2977     5.0387    -0.5547 H       
  31 H31           -8.2036     2.9787    -1.5959 H       
  32 H32           -8.5893     2.3329     0.0173 H       
  33 H33          -10.0532     4.3355     0.4157 H       
  34 H34          -10.6543     5.7409    -1.5368 H       
  35 H35           -8.9171     5.8663    -1.1700 H       
  36 H36           -9.4687     4.8636    -2.5333 H       
  37 H37          -11.0016     2.2047    -0.4265 H       
  38 H38          -11.8716     3.6026    -1.1026 H       
  39 H39          -10.6860     2.7254    -2.0991 H       
  40 H40            0.5123     3.8398    -0.8722 H       
  41 H41            0.5293     3.8303     0.9076 H       
  42 H42            2.0589     3.9363     0.0035 H       
@<TRIPOS>BOND
   1    1    2 ar
   2    1   21 1
   3    1    6 ar
   4    2    3 ar
   5    2   23 1
   6    3    4 ar
   7    3   24 1
   8    4    5 ar
   9    4   25 1
  10    5    6 ar
  11    5    7 1
  12    6   26 1
  13    7    8 1
  14    7   12 2
  15    8    9 2
  16    8   27 1
  17    9   10 1
  18    9   28 1
  19   10   11 am
  20   10   13 1
  21   11   12 1
  22   11   17 2
  23   12   18 1
  24   13   14 1
  25   13   29 1
  26   13   30 1
  27   14   15 1
  28   14   31 1
  29   14   32 1
  30   15   16 1
  31   15   20 1
  32   15   33 1
  33   16   34 1
  34   16   35 1
  35   16   36 1
  36   18   19 3
  37   20   37 1
  38   20   38 1
  39   20   39 1
  40   21   22 1
  41   22   40 1
  42   22   41 1
  43   22   42 1

#	End of record

