#	Name: ASD01916733
#	Creating user name:	WinNT
#	Creation time:	15. 06. 2019 20:07

#	Modifying user name:	WinNT
#	Modification time:	15. 06. 2019 20:07

#	Program:	/corina/corina34_cracker 3.40 0067  02.08.2006

@<TRIPOS>MOLECULE
ASD01916733
  34   36    0    0    0
SMALL
NO_CHARGES


@<TRIPOS>ATOM
   1 O1            -0.0161     1.3380     0.0094 O.3     
   2 C2             0.0021    -0.0041     0.0020 C.2     
   3 N3             1.2266    -0.4378    -0.0120 N.2     
   4 C4             2.0701     0.6298    -0.0143 C.ar    
   5 C5             1.2622     1.7764    -0.0005 C.ar    
   6 C6             1.8493     3.0345     0.0000 C.ar    
   7 C7             3.2257     3.1506    -0.0132 C.ar    
   8 C8             4.0262     2.0183    -0.0274 C.ar    
   9 C9             3.4597     0.7632    -0.0273 C.ar    
  10 C10           -1.2227    -0.8821     0.0098 C.3     
  11 C11           -1.6228    -1.1865     1.4548 C.3     
  12 C12           -2.8191    -2.0442     1.4624 C.1     
  13 C13           -3.7732    -2.7283     1.4684 C.1     
  14 C14           -4.9370    -3.5626     1.4758 C.ar    
  15 C15           -5.4877    -3.9721     2.6908 C.ar    
  16 C16           -6.6121    -4.7781     2.6811 C.ar    
  17 C17           -7.1510    -5.1496     1.4570 C.ar    
  18 C18           -6.5545    -4.7078     0.2905 C.ar    
  19 N19           -5.4871    -3.9363     0.3263 N.ar    
  20 C20            4.3367    -0.4622    -0.0417 C.3     
  21 F21            5.6806    -0.0738    -0.0530 F       
  22 F22            4.0830    -1.2308     1.0994 F       
  23 F23            4.0607    -1.2198    -1.1850 F       
  24 F24            1.0763     4.1425     0.0129 F       
  25 H25            3.6815     4.1297    -0.0128 H       
  26 H26            5.1012     2.1215    -0.0383 H       
  27 H27           -2.0415    -0.3680    -0.4934 H       
  28 H28           -1.0045    -1.8146    -0.5109 H       
  29 H29           -0.8039    -1.7007     1.9580 H       
  30 H30           -1.8410    -0.2541     1.9755 H       
  31 H31           -5.0422    -3.6646     3.6253 H       
  32 H32           -7.0604    -5.1111     3.6055 H       
  33 H33           -8.0282    -5.7783     1.4161 H       
  34 H34           -6.9716    -4.9957    -0.6631 H       
@<TRIPOS>BOND
   1    1    2 1
   2    1    5 1
   3    2    3 2
   4    2   10 1
   5    3    4 1
   6    4    5 ar
   7    4    9 ar
   8    5    6 ar
   9    6    7 ar
  10    6   24 1
  11    7    8 ar
  12    7   25 1
  13    8    9 ar
  14    8   26 1
  15    9   20 1
  16   10   11 1
  17   10   27 1
  18   10   28 1
  19   11   12 1
  20   11   29 1
  21   11   30 1
  22   12   13 3
  23   13   14 1
  24   14   15 ar
  25   14   19 ar
  26   15   16 ar
  27   15   31 1
  28   16   17 ar
  29   16   32 1
  30   17   18 ar
  31   17   33 1
  32   18   19 ar
  33   18   34 1
  34   20   21 1
  35   20   22 1
  36   20   23 1

#	End of record

