#	Name: ASD01208943
#	Creating user name:	WinNT
#	Creation time:	15. 06. 2019 19:10

#	Modifying user name:	WinNT
#	Modification time:	15. 06. 2019 19:10

#	Program:	/corina/corina34_cracker 3.40 0067  02.08.2006

@<TRIPOS>MOLECULE
ASD01208943
  51   54    0    0    0
SMALL
NO_CHARGES


@<TRIPOS>ATOM
   1 C1            -2.1651     1.6093    -0.9627 C.3     
   2 C2            -2.1470     0.0847    -1.1088 C.3     
   3 C3            -1.4117    -0.2847    -2.4008 C.3     
   4 C4            -2.0971     0.4043    -3.5837 C.3     
   5 C5            -2.8214     2.2251    -2.2011 C.3     
   6 C6            -1.4226    -0.5357     0.0876 C.3     
   7 C7            -1.5299    -2.0601     0.0144 C.3     
   8 C8            -0.7065    -2.6752     1.1166 C.2     
   9 N9             0.6325    -2.5222     1.1230 N.am    
  10 C10            1.4022    -3.1746     2.0798 C.2     
  11 N11           -2.9308    -2.4591     0.1705 N.pl3   
  12 N12            2.6921    -3.0956     2.1742 N.2     
  13 C13            3.2637    -3.7832     3.1461 C.2     
  14 C14            2.4143    -4.4760     3.9089 C.2     
  15 S15            0.7833    -4.1914     3.3069 S.3     
  16 N16           -3.8360    -2.7153    -0.8673 N.2     
  17 C17           -4.9869    -3.0445    -0.3386 C.2     
  18 C18           -4.8578    -3.0103     1.0572 C.2     
  19 C19           -3.5817    -2.6523     1.3486 C.2     
  20 N20           -5.8709    -3.3010     1.9908 N.am    
  21 O21           -1.2489    -3.3079     1.9978 O.2     
  22 O22           -2.1072     1.8171    -3.3697 O.3     
  23 S23           -6.8352    -4.6305     1.7792 S.o2    
  24 C24           -5.7044    -6.0399     1.9392 C.3     
  25 C25           -6.2734    -7.4356     1.6760 C.3     
  26 C26           -5.3269    -6.7914     0.6611 C.3     
  27 Cl27           2.8420    -5.4768     5.2614 Cl      
  28 O28           -7.7370    -4.5876     2.8765 O.2     
  29 O29           -7.3023    -4.5154     0.4421 O.2     
  30 H30           -2.7343     1.8834    -0.0744 H       
  31 H31           -1.1437     1.9785    -0.8701 H       
  32 H32           -3.1698    -0.2897    -1.1516 H       
  33 H33           -0.3751     0.0462    -2.3373 H       
  34 H34           -1.4421    -1.3652    -2.5411 H       
  35 H35           -1.5525     0.1794    -4.5007 H       
  36 H36           -3.1216     0.0425    -3.6712 H       
  37 H37           -3.8554     1.8872    -2.2705 H       
  38 H38           -2.7986     3.3120    -2.1221 H       
  39 H39           -0.3726    -0.2439     0.0677 H       
  40 H40           -1.8802    -0.1832     1.0120 H       
  41 H41           -1.1595    -2.4045    -0.9512 H       
  42 H42            1.0593    -1.9570     0.4603 H       
  43 H43            4.3312    -3.7852     3.3104 H       
  44 H44           -5.8835    -3.2989    -0.8844 H       
  45 H45           -3.1612    -2.5360     2.3366 H       
  46 H46           -6.0040    -2.7224     2.7579 H       
  47 H47           -4.9413    -5.9450     2.7116 H       
  48 H48           -5.8843    -8.2589     2.2750 H       
  49 H49           -7.3272    -7.5069     1.4066 H       
  50 H50           -5.7580    -6.4389    -0.2760 H       
  51 H51           -4.3151    -7.1909     0.5924 H       
@<TRIPOS>BOND
   1    1    2 1
   2    1    5 1
   3    1   30 1
   4    1   31 1
   5    2    3 1
   6    2    6 1
   7    2   32 1
   8    3    4 1
   9    3   33 1
  10    3   34 1
  11    4   22 1
  12    4   35 1
  13    4   36 1
  14    5   22 1
  15    5   37 1
  16    5   38 1
  17    6    7 1
  18    6   39 1
  19    6   40 1
  20    7    8 1
  21    7   11 1
  22    7   41 1
  23    8    9 am
  24    8   21 2
  25    9   10 1
  26    9   42 1
  27   10   12 2
  28   10   15 1
  29   11   16 1
  30   11   19 1
  31   12   13 1
  32   13   14 2
  33   13   43 1
  34   14   15 1
  35   14   27 1
  36   16   17 2
  37   17   18 1
  38   17   44 1
  39   18   19 2
  40   18   20 1
  41   19   45 1
  42   20   23 am
  43   20   46 1
  44   23   24 1
  45   23   28 2
  46   23   29 2
  47   24   25 1
  48   24   26 1
  49   24   47 1
  50   25   26 1
  51   25   48 1
  52   25   49 1
  53   26   50 1
  54   26   51 1

#	End of record

