#	Name: ASD01231318
#	Creating user name:	WinNT
#	Creation time:	15. 06. 2019 19:15

#	Modifying user name:	WinNT
#	Modification time:	15. 06. 2019 19:15

#	Program:	/corina/corina34_cracker 3.40 0067  02.08.2006

@<TRIPOS>MOLECULE
ASD01231318
  33   34    0    0    0
SMALL
NO_CHARGES


@<TRIPOS>ATOM
   1 C1            -3.4811     1.0826     1.4455 C.3     
   2 C2            -2.9992    -0.3694     1.4686 C.3     
   3 C3            -4.1980    -1.3071     1.3125 C.3     
   4 S4            -1.8363    -0.6423     0.1035 S.o2    
   5 O5            -2.5045    -0.5485    -1.1471 O.2     
   6 O6            -0.6198     0.0536     0.3381 O.2     
   7 N7            -1.4225    -2.2410     0.2265 N.am    
   8 C8            -0.6934    -2.7205     1.4033 C.3     
   9 C9            -1.1772    -4.1330     1.7943 C.3     
  10 C10           -0.1900    -5.0437     1.0338 C.3     
  11 C11            1.0661    -4.2154     0.8686 C.ar    
  12 C12            2.3595    -4.5995     0.5566 C.ar    
  13 C13            3.3612    -3.6527     0.4573 C.ar    
  14 C14            3.0713    -2.3168     0.6698 C.ar    
  15 C15            1.7819    -1.9327     0.9807 C.ar    
  16 C16            0.7770    -2.8805     1.0809 C.ar    
  17 Br17           5.1260    -4.1825     0.0321 Br      
  18 H18           -4.1800     1.2466     2.2658 H       
  19 H19           -2.6271     1.7507     1.5567 H       
  20 H20           -3.9797     1.2849     0.4975 H       
  21 H21           -2.5007    -0.5716     2.4166 H       
  22 H22           -4.7463    -1.0483     0.4067 H       
  23 H23           -3.8472    -2.3368     1.2432 H       
  24 H24           -4.8546    -1.2044     2.1765 H       
  25 H25           -1.6629    -2.8600    -0.4805 H       
  26 H26           -0.8265    -2.0309     2.2368 H       
  27 H27           -1.0956    -4.2865     2.8704 H       
  28 H28           -2.1993    -4.3004     1.4544 H       
  29 H29            0.0221    -5.9406     1.6156 H       
  30 H30           -0.5972    -5.3118     0.0589 H       
  31 H31            2.5861    -5.6423     0.3907 H       
  32 H32            3.8527    -1.5752     0.5931 H       
  33 H33            1.5564    -0.8896     1.1468 H       
@<TRIPOS>BOND
   1    1    2 1
   2    1   18 1
   3    1   19 1
   4    1   20 1
   5    2    3 1
   6    2    4 1
   7    2   21 1
   8    3   22 1
   9    3   23 1
  10    3   24 1
  11    4    5 2
  12    4    6 2
  13    4    7 am
  14    7    8 1
  15    7   25 1
  16    8    9 1
  17    8   16 1
  18    8   26 1
  19    9   10 1
  20    9   27 1
  21    9   28 1
  22   10   11 1
  23   10   29 1
  24   10   30 1
  25   11   12 ar
  26   11   16 ar
  27   12   13 ar
  28   12   31 1
  29   13   14 ar
  30   13   17 1
  31   14   15 ar
  32   14   32 1
  33   15   16 ar
  34   15   33 1

#	End of record

