#	Name: ASD03082299
#	Creating user name:	WinNT
#	Creation time:	15. 06. 2019 20:27

#	Modifying user name:	WinNT
#	Modification time:	15. 06. 2019 20:27

#	Program:	/corina/corina34_cracker 3.40 0067  02.08.2006

@<TRIPOS>MOLECULE
ASD03082299
  45   47    0    0    0
SMALL
NO_CHARGES


@<TRIPOS>ATOM
   1 N1            -0.0137     1.4263     0.0795 N.pl3   
   2 N2            -0.0360     0.0266    -0.0321 N.2     
   3 C3             1.1982    -0.3903     0.1360 C.2     
   4 N4             1.9884     0.6634     0.3455 N.2     
   5 C5             1.2723     1.7693     0.3147 C.2     
   6 N6             1.6157    -1.7222     0.1010 N.pl3   
   7 C7             2.9725    -2.0336     0.2362 C.ar    
   8 C8             3.8011    -1.2171     0.9954 C.ar    
   9 C9             5.1408    -1.5258     1.1286 C.ar    
  10 C10            5.6593    -2.6483     0.5062 C.ar    
  11 C11            4.8350    -3.4652    -0.2528 C.ar    
  12 C12            3.4917    -3.1624    -0.3837 C.ar    
  13 C13            1.7859     3.1445     0.5037 C.ar    
  14 C14           -1.1566     2.3348    -0.0413 C.3     
  15 C15            0.9249     4.1928     0.8449 C.ar    
  16 C16            1.4463     5.4597     1.0113 C.ar    
  17 N17            2.7357     5.6875     0.8530 N.ar    
  18 C18            3.5819     4.7278     0.5315 C.ar    
  19 C19            3.1470     3.4309     0.3516 C.ar    
  20 C20           -1.8017     2.5128     1.3090 C.2     
  21 N21           -2.8794     3.3114     1.4410 N.am    
  22 C22           -3.5065     3.4845     2.7536 C.3     
  23 O23           -1.3512     1.9374     2.2769 O.2     
  24 C24           -3.4235     4.0065     0.2718 C.3     
  25 F25            5.3429    -4.5601    -0.8598 F       
  26 C26            5.0442     5.0513     0.3643 C.3     
  27 F27            6.9700    -2.9480     0.6381 F       
  28 H28            0.9647    -2.4315    -0.0171 H       
  29 H29            3.3979    -0.3408     1.4812 H       
  30 H30            5.7846    -0.8904     1.7187 H       
  31 H31            2.8483    -3.8009    -0.9708 H       
  32 H32           -0.8147     3.3016    -0.4109 H       
  33 H33           -1.8822     1.9153    -0.7382 H       
  34 H34           -0.1321     4.0135     0.9757 H       
  35 H35            0.7895     6.2756     1.2745 H       
  36 H36            3.8454     2.6501     0.0888 H       
  37 H37           -3.0458     4.3277     3.2681 H       
  38 H38           -4.5719     3.6755     2.6249 H       
  39 H39           -3.3685     2.5789     3.3444 H       
  40 H40           -4.1748     3.3785    -0.2071 H       
  41 H41           -3.8812     4.9442     0.5870 H       
  42 H42           -2.6196     4.2139    -0.4344 H       
  43 H43            5.5540     4.9341     1.3206 H       
  44 H44            5.4847     4.3744    -0.3677 H       
  45 H45            5.1516     6.0796     0.0190 H       
@<TRIPOS>BOND
   1    1    2 1
   2    1    5 1
   3    1   14 1
   4    2    3 2
   5    3    4 1
   6    3    6 1
   7    4    5 2
   8    5   13 1
   9    6    7 1
  10    6   28 1
  11    7    8 ar
  12    7   12 ar
  13    8    9 ar
  14    8   29 1
  15    9   10 ar
  16    9   30 1
  17   10   11 ar
  18   10   27 1
  19   11   12 ar
  20   11   25 1
  21   12   31 1
  22   13   15 ar
  23   13   19 ar
  24   14   20 1
  25   14   32 1
  26   14   33 1
  27   15   16 ar
  28   15   34 1
  29   16   17 ar
  30   16   35 1
  31   17   18 ar
  32   18   19 ar
  33   18   26 1
  34   19   36 1
  35   20   21 am
  36   20   23 2
  37   21   22 1
  38   21   24 1
  39   22   37 1
  40   22   38 1
  41   22   39 1
  42   24   40 1
  43   24   41 1
  44   24   42 1
  45   26   43 1
  46   26   44 1
  47   26   45 1

#	End of record

