#	Name: ASD02030007
#	Creating user name:	WinNT
#	Creation time:	15. 06. 2019 20:14

#	Modifying user name:	WinNT
#	Modification time:	15. 06. 2019 20:14

#	Program:	/corina/corina34_cracker 3.40 0067  02.08.2006

@<TRIPOS>MOLECULE
ASD02030007
  55   56    0    0    0
SMALL
NO_CHARGES


@<TRIPOS>ATOM
   1 C1            -2.0945    -5.6064    -2.7569 C.ar    
   2 C2            -3.4746    -5.5411    -2.6685 C.ar    
   3 C3            -4.0746    -4.4967    -1.9879 C.ar    
   4 C4            -3.2965    -3.5195    -1.3966 C.ar    
   5 C5            -1.9182    -3.5846    -1.4852 C.ar    
   6 C6            -1.3169    -4.6305    -2.1595 C.ar    
   7 Cl7           -1.3399    -6.9162    -3.6107 Cl      
   8 C8            -3.9506    -2.3822    -0.6553 C.3     
   9 C9            -4.1304    -2.7678     0.8144 C.3     
  10 N10           -4.7680    -1.6591     1.5370 N.3     
  11 C11           -5.1720    -2.0739     2.8871 C.3     
  12 C12           -6.4311    -2.9387     2.7995 C.3     
  13 C13           -6.7822    -3.4708     4.1904 C.3     
  14 O14           -7.8876    -4.3710     4.0910 O.3     
  15 C15           -8.3287    -4.9370     5.2463 C.ar    
  16 C16           -9.3980    -5.8200     5.2213 C.ar    
  17 C17           -9.8463    -6.3956     6.3939 C.ar    
  18 C18           -9.2262    -6.0901     7.5982 C.ar    
  19 C19           -8.1557    -5.2059     7.6223 C.ar    
  20 C20           -7.7053    -4.6353     6.4480 C.ar    
  21 N21           -9.6800    -6.6725     8.7870 N.am    
  22 S22          -10.5633    -5.7763     9.8635 S.o2    
  23 C23          -12.0796    -5.3521     8.9626 C.3     
  24 O24          -10.8486    -6.6809    10.9216 O.2     
  25 O25           -9.7735    -4.6159    10.0846 O.2     
  26 O26           -7.5157    -2.1521     2.3027 O.3     
  27 Cl27          -4.4516    -6.7685    -3.4119 Cl      
  28 C28           -3.8840    -0.4870     1.5889 C.3     
  29 C29           -4.6965     0.7475     1.9848 C.3     
  30 H30           -5.1512    -4.4449    -1.9189 H       
  31 H31           -1.3110    -2.8203    -1.0231 H       
  32 H32           -0.2403    -4.6807    -2.2284 H       
  33 H33           -3.3217    -1.4945    -0.7237 H       
  34 H34           -4.9244    -2.1725    -1.0977 H       
  35 H35           -4.7593    -3.6554     0.8828 H       
  36 H36           -3.1565    -2.9775     1.2568 H       
  37 H37           -4.3678    -2.6485     3.3466 H       
  38 H38           -5.3791    -1.1909     3.4917 H       
  39 H39           -6.2507    -3.7759     2.1251 H       
  40 H40           -5.9223    -3.9959     4.6062 H       
  41 H41           -7.0490    -2.6382     4.8412 H       
  42 H42           -9.8804    -6.0573     4.2846 H       
  43 H43          -10.6791    -7.0829     6.3744 H       
  44 H44           -7.6729    -4.9677     8.5586 H       
  45 H45           -6.8726    -3.9479     6.4665 H       
  46 H46           -9.4773    -7.6011     8.9804 H       
  47 H47          -12.6411    -6.2613     8.7479 H       
  48 H48          -12.6889    -4.6839     9.5712 H       
  49 H49          -11.8198    -4.8561     8.0274 H       
  50 H50           -7.6836    -1.3474     2.8120 H       
  51 H51           -3.0986    -0.6566     2.3254 H       
  52 H52           -3.4346    -0.3272     0.6088 H       
  53 H53           -4.0632     1.6328     1.9281 H       
  54 H54           -5.5406     0.8604     1.3045 H       
  55 H55           -5.0646     0.6287     3.0039 H       
@<TRIPOS>BOND
   1    1    2 ar
   2    1    7 1
   3    1    6 ar
   4    2    3 ar
   5    2   27 1
   6    3    4 ar
   7    3   30 1
   8    4    5 ar
   9    4    8 1
  10    5    6 ar
  11    5   31 1
  12    6   32 1
  13    8    9 1
  14    8   33 1
  15    8   34 1
  16    9   10 1
  17    9   35 1
  18    9   36 1
  19   10   11 1
  20   10   28 1
  21   11   12 1
  22   11   37 1
  23   11   38 1
  24   12   13 1
  25   12   26 1
  26   12   39 1
  27   13   14 1
  28   13   40 1
  29   13   41 1
  30   14   15 1
  31   15   16 ar
  32   15   20 ar
  33   16   17 ar
  34   16   42 1
  35   17   18 ar
  36   17   43 1
  37   18   19 ar
  38   18   21 1
  39   19   20 ar
  40   19   44 1
  41   20   45 1
  42   21   22 am
  43   21   46 1
  44   22   23 1
  45   22   24 2
  46   22   25 2
  47   23   47 1
  48   23   48 1
  49   23   49 1
  50   26   50 1
  51   28   29 1
  52   28   51 1
  53   28   52 1
  54   29   53 1
  55   29   54 1
  56   29   55 1

#	End of record

