#	Name: ASD03731824
#	Creating user name:	WinNT
#	Creation time:	15. 06. 2019 20:46

#	Modifying user name:	WinNT
#	Modification time:	15. 06. 2019 20:46

#	Program:	/corina/corina34_cracker 3.40 0067  02.08.2006

@<TRIPOS>MOLECULE
ASD03731824
  39   41    0    0    0
SMALL
NO_CHARGES


@<TRIPOS>ATOM
   1 C1            -0.1563     1.4665     0.0375 C.2     
   2 C2            -0.0999    -0.0068     0.0222 C.ar    
   3 C3             1.1268    -0.6610    -0.1436 C.ar    
   4 C4             1.1739    -2.0404    -0.1567 C.ar    
   5 C5             0.0070    -2.7780    -0.0058 C.ar    
   6 C6            -1.2142    -2.1309     0.1587 C.ar    
   7 C7            -1.2704    -0.7550     0.1789 C.ar    
   8 O8             0.8638     2.1154    -0.0939 O.2     
   9 N9            -1.3390     2.0941     0.1916 N.am    
  10 O10            0.0575    -4.1341    -0.0193 O.3     
  11 C11           -0.1542    -4.7682    -1.2011 C.ar    
  12 C12           -0.4793    -4.0466    -2.3278 C.ar    
  13 C13           -0.6984    -4.6862    -3.5445 C.ar    
  14 C14           -0.5979    -6.0395    -3.6550 C.ar    
  15 C15           -0.2678    -6.8120    -2.5288 C.ar    
  16 C16           -0.1569    -8.2109    -2.6123 C.ar    
  17 C17            0.1647    -8.9286    -1.5016 C.ar    
  18 C18            0.3866    -8.2974    -0.2791 C.ar    
  19 C19            0.2879    -6.9448    -0.1611 C.ar    
  20 C20           -0.0373    -6.1708    -1.2865 C.ar    
  21 S21           -1.4023     3.7488     0.2089 S.o2    
  22 O22           -2.7772     4.0448     0.4116 O.2     
  23 O23           -0.4226     4.1270     1.1661 O.2     
  24 C24           -0.8848     4.2389    -1.4593 C.3     
  25 F25            2.2621     0.0564    -0.2908 F       
  26 Cl26          -2.6687    -3.0601     0.3455 Cl      
  27 H27            2.1193    -2.5466    -0.2848 H       
  28 H28           -2.2183    -0.2545     0.3111 H       
  29 H29           -2.1531     1.5765     0.2925 H       
  30 H30           -0.5656    -2.9718    -2.2667 H       
  31 H31           -0.9526    -4.0996    -4.4149 H       
  32 H32           -0.7721    -6.5187    -4.6071 H       
  33 H33           -0.3264    -8.7136    -3.5531 H       
  34 H34            0.2489   -10.0032    -1.5685 H       
  35 H35            0.6402    -8.8901     0.5874 H       
  36 H36            0.4625    -6.4691     0.7927 H       
  37 H37           -1.5702     3.8131    -2.1921 H       
  38 H38           -0.8973     5.3259    -1.5388 H       
  39 H39            0.1239     3.8722    -1.6492 H       
@<TRIPOS>BOND
   1    1    2 1
   2    1    8 2
   3    1    9 am
   4    2    3 ar
   5    2    7 ar
   6    3    4 ar
   7    3   25 1
   8    4    5 ar
   9    4   27 1
  10    5    6 ar
  11    5   10 1
  12    6    7 ar
  13    6   26 1
  14    7   28 1
  15    9   21 am
  16    9   29 1
  17   10   11 1
  18   11   12 ar
  19   11   20 ar
  20   12   13 ar
  21   12   30 1
  22   13   14 ar
  23   13   31 1
  24   14   15 ar
  25   14   32 1
  26   15   16 ar
  27   15   20 ar
  28   16   17 ar
  29   16   33 1
  30   17   18 ar
  31   17   34 1
  32   18   19 ar
  33   18   35 1
  34   19   20 ar
  35   19   36 1
  36   21   22 2
  37   21   23 2
  38   21   24 1
  39   24   37 1
  40   24   38 1
  41   24   39 1

#	End of record

