#	Name: ASD08151005
#	Creating user name:	WinNT
#	Creation time:	15. 06. 2019 21:16

#	Modifying user name:	WinNT
#	Modification time:	15. 06. 2019 21:16

#	Program:	/corina/corina34_cracker 3.40 0067  02.08.2006

@<TRIPOS>MOLECULE
ASD08151005
  62   64    0    0    0
SMALL
NO_CHARGES


@<TRIPOS>ATOM
   1 N1            -0.2776     1.4121     0.0421 N.2     
   2 C2            -0.6828     0.2777     0.5346 C.2     
   3 N3            -0.3518     0.1982     1.8546 N.pl3   
   4 C4             0.2974     1.3604     2.1865 C.ar    
   5 N5             0.8414     1.8473     3.2970 N.ar    
   6 C6             1.4109     3.0341     3.3006 C.ar    
   7 N7             1.4726     3.7940     2.2224 N.ar    
   8 C8             0.9560     3.3912     1.0660 C.ar    
   9 C9             0.3376     2.1307     1.0119 C.ar    
  10 N10            1.0252     4.1948    -0.0586 N.pl3   
  11 C11            1.6735     5.5064     0.0171 C.3     
  12 C12            2.1652     5.9132    -1.3734 C.3     
  13 N13            0.6178     9.7939     2.1267 N.ar    
  14 C14           -0.2414    10.6835     2.5634 C.ar    
  15 C15           -1.6163    10.4838     2.4639 C.ar    
  16 C16           -2.0990     9.3374     1.8995 C.ar    
  17 C17           -1.1725     8.3855     1.4322 C.ar    
  18 C18           -1.5967     7.1845     0.8411 C.ar    
  19 C19           -0.6778     6.2814     0.3973 C.ar    
  20 C20            0.6850     6.5272     0.5189 C.ar    
  21 C21            1.1443     7.6978     1.0956 C.ar    
  22 C22            0.2115     8.6535     1.5654 C.ar    
  23 C23            2.5990     7.9488     1.2208 C.ar    
  24 C24            3.1905     8.9991     0.5200 C.ar    
  25 C25            4.5481     9.2295     0.6405 C.ar    
  26 C26            5.3208     8.4187     1.4555 C.ar    
  27 C27            4.7380     7.3736     2.1533 C.ar    
  28 C28            3.3802     7.1390     2.0443 C.ar    
  29 F29            5.4971     6.5857     2.9459 F       
  30 F30            5.1223    10.2470    -0.0380 F       
  31 H31           -1.2048    -0.4877    -0.0205 H       
  32 H32           -0.5407    -0.5438     2.4500 H       
  33 H33            1.8436     3.4002     4.2199 H       
  34 H34            0.6444     3.8897    -0.8969 H       
  35 H35            2.5205     5.4540     0.7011 H       
  36 H36            1.3182     5.9655    -2.0574 H       
  37 H37            2.6476     6.8890    -1.3171 H       
  38 H38            2.8802     5.1748    -1.7364 H       
  39 H39            0.1267    11.5942     3.0122 H       
  40 H40           -2.2997    11.2342     2.8327 H       
  41 H41           -3.1619     9.1656     1.8144 H       
  42 H42           -2.6514     6.9766     0.7380 H       
  43 H43           -1.0136     5.3602    -0.0556 H       
  44 H44            2.5889     9.6314    -0.1162 H       
  45 H45            6.3813     8.6017     1.5467 H       
  46 H46            2.9258     6.3269     2.5925 H       
  47 C47           12.5528    18.5825    10.3667 C.2     
  48 C48           12.5732    17.0756    10.3584 C.3     
  49 O49           13.5908    19.2008    10.3601 O.2     
  50 O50           11.3813    19.2377    10.3759 O.3     
  51 F51           13.8983    16.6273    10.3434 F       
  52 F52           11.9310    16.5942    11.5043 F       
  53 F53           11.9092    16.6065     9.2199 F       
  54 H54           11.4188    20.2040    10.3809 H       
  55 C55           20.0698    27.1922    17.6512 C.2     
  56 C56           20.0902    25.6854    17.6429 C.3     
  57 O57           21.1078    27.8105    17.6446 O.2     
  58 O58           18.8983    27.8475    17.6603 O.3     
  59 F59           21.4153    25.2371    17.6278 F       
  60 F60           19.4480    25.2040    18.7888 F       
  61 F61           19.4262    25.2163    16.5043 F       
  62 H62           18.9358    28.8138    17.6653 H       
@<TRIPOS>BOND
   1    1    2 2
   2    1    9 1
   3    2    3 1
   4    2   31 1
   5    3    4 1
   6    3   32 1
   7    4    5 ar
   8    4    9 ar
   9    5    6 ar
  10    6    7 ar
  11    6   33 1
  12    7    8 ar
  13    8    9 ar
  14    8   10 1
  15   10   11 1
  16   10   34 1
  17   11   12 1
  18   11   20 1
  19   11   35 1
  20   12   36 1
  21   12   37 1
  22   12   38 1
  23   13   14 ar
  24   13   22 ar
  25   14   15 ar
  26   14   39 1
  27   15   16 ar
  28   15   40 1
  29   16   17 ar
  30   16   41 1
  31   17   18 ar
  32   17   22 ar
  33   18   19 ar
  34   18   42 1
  35   19   20 ar
  36   19   43 1
  37   20   21 ar
  38   21   22 ar
  39   21   23 1
  40   23   24 ar
  41   23   28 ar
  42   24   25 ar
  43   24   44 1
  44   25   26 ar
  45   25   30 1
  46   26   27 ar
  47   26   45 1
  48   27   28 ar
  49   27   29 1
  50   28   46 1
  51   47   48 1
  52   47   49 2
  53   47   50 1
  54   48   51 1
  55   48   52 1
  56   48   53 1
  57   50   54 1
  58   55   56 1
  59   55   57 2
  60   55   58 1
  61   56   59 1
  62   56   60 1
  63   56   61 1
  64   58   62 1

#	End of record

