#	Name: ASD05062020
#	Creating user name:	WinNT
#	Creation time:	15. 06. 2019 20:56

#	Modifying user name:	WinNT
#	Modification time:	15. 06. 2019 20:56

#	Program:	/corina/corina34_cracker 3.40 0067  02.08.2006

@<TRIPOS>MOLECULE
ASD05062020
  59   64    0    0    0
SMALL
NO_CHARGES


@<TRIPOS>ATOM
   1 C1            -0.5708    -0.9994    -1.3352 C.ar    
   2 C2             0.0810    -1.6289    -2.3854 C.ar    
   3 C3             1.4556    -1.7135    -2.3999 C.ar    
   4 C4             2.1920    -1.1609    -1.3501 C.ar    
   5 C5             1.5315    -0.5234    -0.2876 C.ar    
   6 C6             0.1447    -0.4496    -0.2922 C.ar    
   7 C7             3.6614    -1.2335    -1.3331 C.2     
   8 C8             4.3199    -0.6719    -0.2742 C.2     
   9 C9             3.5884    -0.0519     0.7503 C.2     
  10 O10            2.2474     0.0090     0.7263 O.3     
  11 O11            4.1871     0.4444     1.6886 O.2     
  12 O12            4.3405    -1.8380    -2.3344 O.3     
  13 C13            5.8246    -0.7191    -0.2076 C.3     
  14 C14            6.4026    -0.0590    -1.4329 C.2     
  15 C15            6.2961     0.0089     1.0248 C.ar    
  16 C16            6.6161    -0.7052     2.1662 C.ar    
  17 C17            7.0482    -0.0454     3.2978 C.ar    
  18 C18            7.1624     1.3467     3.2897 C.ar    
  19 C19            6.8377     2.0610     2.1341 C.ar    
  20 C20            6.4123     1.3878     1.0080 C.ar    
  21 C21            7.6242     2.0604     4.4981 C.2     
  22 C22            7.4935     1.4259     5.8260 C.ar    
  23 O23            8.1115     3.1696     4.3999 O.2     
  24 C24            8.3113     1.8342     6.8823 C.ar    
  25 C25            8.1839     1.2375     8.1192 C.ar    
  26 C26            7.2486     0.2365     8.3151 C.ar    
  27 C27            6.4354    -0.1732     7.2730 C.ar    
  28 C28            6.5477     0.4190     6.0325 C.ar    
  29 C29            5.7156     0.9423    -2.0620 C.2     
  30 C30            6.3237     1.5543    -3.2538 C.ar    
  31 C31            7.5738     1.0892    -3.6927 C.ar    
  32 O32            8.1948     0.0955    -3.0214 O.3     
  33 C33            7.6505    -0.4651    -1.9296 C.2     
  34 C34            5.6778     2.5809    -3.9455 C.ar    
  35 C35            6.2741     3.1321    -5.0580 C.ar    
  36 C36            7.5090     2.6722    -5.4909 C.ar    
  37 C37            8.1578     1.6591    -4.8165 C.ar    
  38 O38            4.5131     1.3573    -1.6027 O.3     
  39 O39            8.2524    -1.3586    -1.3599 O.2     
  40 H40           -1.6489    -0.9354    -1.3364 H       
  41 H41           -0.4922    -2.0550    -3.1955 H       
  42 H42            1.9610    -2.2046    -3.2183 H       
  43 H43           -0.3731     0.0388     0.5201 H       
  44 H44            3.7753    -2.2001    -3.0305 H       
  45 H45            6.1540    -1.7573    -0.1647 H       
  46 H46            6.5270    -1.7815     2.1711 H       
  47 H47            7.2973    -0.6038     4.1880 H       
  48 H48            6.9238     3.1374     2.1210 H       
  49 H49            6.1609     1.9387     0.1137 H       
  50 H50            9.0418     2.6151     6.7306 H       
  51 H51            8.8157     1.5520     8.9367 H       
  52 H52            7.1531    -0.2273     9.2858 H       
  53 H53            5.7078    -0.9552     7.4328 H       
  54 H54            5.9122     0.0985     5.2201 H       
  55 H55            4.7160     2.9403    -3.6105 H       
  56 H56            5.7776     3.9261    -5.5961 H       
  57 H57            7.9671     3.1119    -6.3645 H       
  58 H58            9.1190     1.3088    -5.1624 H       
  59 H59            4.1176     2.0696    -2.1234 H       
@<TRIPOS>BOND
   1    1    2 ar
   2    1    6 ar
   3    1   40 1
   4    2    3 ar
   5    2   41 1
   6    3    4 ar
   7    3   42 1
   8    4    5 ar
   9    4    7 1
  10    5    6 ar
  11    5   10 1
  12    6   43 1
  13    7    8 2
  14    7   12 1
  15    8    9 1
  16    8   13 1
  17    9   10 1
  18    9   11 2
  19   12   44 1
  20   13   14 1
  21   13   15 1
  22   13   45 1
  23   14   29 2
  24   14   33 1
  25   15   16 ar
  26   15   20 ar
  27   16   17 ar
  28   16   46 1
  29   17   18 ar
  30   17   47 1
  31   18   19 ar
  32   18   21 1
  33   19   20 ar
  34   19   48 1
  35   20   49 1
  36   21   22 1
  37   21   23 2
  38   22   24 ar
  39   22   28 ar
  40   24   25 ar
  41   24   50 1
  42   25   26 ar
  43   25   51 1
  44   26   27 ar
  45   26   52 1
  46   27   28 ar
  47   27   53 1
  48   28   54 1
  49   29   30 1
  50   29   38 1
  51   30   31 ar
  52   30   34 ar
  53   31   32 1
  54   31   37 ar
  55   32   33 1
  56   33   39 2
  57   34   35 ar
  58   34   55 1
  59   35   36 ar
  60   35   56 1
  61   36   37 ar
  62   36   57 1
  63   37   58 1
  64   38   59 1

#	End of record

