#	Name: ASD02770047
#	Creating user name:	WinNT
#	Creation time:	15. 06. 2019 20:26

#	Modifying user name:	WinNT
#	Modification time:	15. 06. 2019 20:26

#	Program:	/corina/corina34_cracker 3.40 0067  02.08.2006

@<TRIPOS>MOLECULE
ASD02770047
  50   52    0    0    0
SMALL
NO_CHARGES


@<TRIPOS>ATOM
   1 N1            -0.0178     1.4650     0.0101 N.am    
   2 C2             0.0021    -0.0041     0.0020 C.3     
   3 C3             0.8580    -0.4791    -1.1763 C.3     
   4 C4             2.2423     0.1678    -1.0896 C.3     
   5 C5             2.1025     1.6893    -1.1766 C.3     
   6 C6             1.2607     2.1889     0.0018 C.3     
   7 C7             0.9993    -1.9785    -1.1231 C.2     
   8 O8             0.4685    -2.6064    -0.2316 O.2     
   9 N9             1.7156    -2.6218    -2.0664 N.am    
  10 S10           -1.4541     2.2893     0.0214 S.o2    
  11 O11           -1.1826     3.5759    -0.5173 O.2     
  12 O12           -2.4268     1.4081    -0.5232 O.2     
  13 C13           -1.4778     3.6626     2.3525 C.ar    
  14 C14           -1.8984     2.5398     1.7080 C.ar    
  15 C15           -2.6755     1.5858     2.3618 C.ar    
  16 C16           -3.0363     1.7487     3.6643 C.ar    
  17 C17           -2.6205     2.8948     4.3626 C.ar    
  18 C18           -2.9736     3.0981     5.7078 C.ar    
  19 C19           -2.5529     4.2206     6.3520 C.ar    
  20 C20           -1.7759     5.1750     5.6978 C.ar    
  21 C21           -1.4152     5.0123     4.3958 C.ar    
  22 C22           -1.8299     3.8652     3.6975 C.ar    
  23 C23            1.8529    -4.0794    -2.0146 C.3     
  24 C24            2.7079    -4.5532    -3.1917 C.3     
  25 C25            2.8513    -6.0755    -3.1377 C.3     
  26 O26            3.6498    -6.5180    -4.2371 O.3     
  27 H27            0.4307    -0.3688     0.9355 H       
  28 H28           -1.0141    -0.3827    -0.1084 H       
  29 H29            0.3799    -0.1912    -2.1126 H       
  30 H30            2.7097    -0.1004    -0.1422 H       
  31 H31            2.8614    -0.1876    -1.9133 H       
  32 H32            3.0905     2.1482    -1.1383 H       
  33 H33            1.6127     1.9568    -2.1129 H       
  34 H34            1.0750     3.2573    -0.1088 H       
  35 H35            1.7919     2.0030     0.9352 H       
  36 H36            2.1401    -2.1196    -2.7794 H       
  37 H37           -0.8725     4.3915     1.8341 H       
  38 H38           -2.9967     0.7041     1.8272 H       
  39 H39           -3.6392     1.0010     4.1581 H       
  40 H40           -3.5758     2.3675     6.2273 H       
  41 H41           -2.8256     4.3744     7.3856 H       
  42 H42           -1.4555     6.0572     6.2322 H       
  43 H43           -0.8133     5.7606     3.9016 H       
  44 H44            2.3324    -4.3662    -1.0787 H       
  45 H45            0.8666    -4.5396    -2.0735 H       
  46 H46            2.2284    -4.2664    -4.1277 H       
  47 H47            3.6942    -4.0930    -3.1328 H       
  48 H48            3.3308    -6.3623    -2.2018 H       
  49 H49            1.8650    -6.5357    -3.1966 H       
  50 H50            3.7829    -7.4753    -4.2663 H       
@<TRIPOS>BOND
   1    1    2 1
   2    1    6 1
   3    1   10 am
   4    2    3 1
   5    2   27 1
   6    2   28 1
   7    3    4 1
   8    3    7 1
   9    3   29 1
  10    4    5 1
  11    4   30 1
  12    4   31 1
  13    5    6 1
  14    5   32 1
  15    5   33 1
  16    6   34 1
  17    6   35 1
  18    7    8 2
  19    7    9 am
  20    9   23 1
  21    9   36 1
  22   10   11 2
  23   10   12 2
  24   10   14 1
  25   13   14 ar
  26   13   22 ar
  27   13   37 1
  28   14   15 ar
  29   15   16 ar
  30   15   38 1
  31   16   17 ar
  32   16   39 1
  33   17   18 ar
  34   17   22 ar
  35   18   19 ar
  36   18   40 1
  37   19   20 ar
  38   19   41 1
  39   20   21 ar
  40   20   42 1
  41   21   22 ar
  42   21   43 1
  43   23   24 1
  44   23   44 1
  45   23   45 1
  46   24   25 1
  47   24   46 1
  48   24   47 1
  49   25   26 1
  50   25   48 1
  51   25   49 1
  52   26   50 1

#	End of record

