#	Name: ASD01911162
#	Creating user name:	WinNT
#	Creation time:	15. 06. 2019 19:57

#	Modifying user name:	WinNT
#	Modification time:	15. 06. 2019 19:57

#	Program:	/corina/corina34_cracker 3.40 0067  02.08.2006

@<TRIPOS>MOLECULE
ASD01911162
  43   46    0    0    0
SMALL
NO_CHARGES


@<TRIPOS>ATOM
   1 C1             0.0031     1.3383    -0.1334 C.ar    
   2 C2             0.0301    -0.0469    -0.1756 C.ar    
   3 C3             1.2350    -0.7239    -0.1982 C.ar    
   4 C4             2.4331    -0.0270    -0.1796 C.ar    
   5 C5             2.4215     1.3580    -0.1379 C.ar    
   6 C6             1.1929     2.0483    -0.1143 C.ar    
   7 C7             3.4709     2.3986    -0.1081 C.2     
   8 N8             2.8771     3.6051    -0.0705 N.am    
   9 C9             1.5372     3.4852    -0.0714 C.2     
  10 C10            3.5951     4.8816    -0.0330 C.3     
  11 C11            3.8388     5.3624    -1.4403 C.ar    
  12 C12            2.9037     6.1728    -2.0697 C.ar    
  13 C13            3.1318     6.6140    -3.3671 C.ar    
  14 C14            4.2873     6.2461    -4.0279 C.ar    
  15 C15            5.2178     5.4385    -3.4003 C.ar    
  16 C16            4.9973     5.0015    -2.1048 C.ar    
  17 N17            1.7340     6.5439    -1.3991 N.am    
  18 C18            0.6275     6.8619    -2.0999 C.2     
  19 C19           -0.6310     7.1716    -1.3922 C.ar    
  20 C20           -1.7811     7.5019    -2.1158 C.ar    
  21 C21           -2.9556     7.7906    -1.4447 C.ar    
  22 C22           -2.9926     7.7526    -0.0637 C.ar    
  23 C23           -1.8567     7.4261     0.6577 C.ar    
  24 C24           -0.6802     7.1303     0.0030 C.ar    
  25 O25            0.7433     4.4038    -0.0424 O.2     
  26 O26            4.6686     2.1980    -0.1163 O.2     
  27 F27            5.9082     4.2125    -1.4940 F       
  28 O28            0.6655     6.8939    -3.3147 O.2     
  29 F29           -1.7451     7.5395    -3.4658 F       
  30 H30           -0.9412     1.8622    -0.1200 H       
  31 H31           -0.8967    -0.6011    -0.1905 H       
  32 H32            1.2431    -1.8034    -0.2304 H       
  33 H33            3.3715    -0.5612    -0.1971 H       
  34 H34            2.9983     5.6185     0.5045 H       
  35 H35            4.5498     4.7466     0.4753 H       
  36 H36            2.4057     7.2442    -3.8589 H       
  37 H37            4.4642     6.5893    -5.0365 H       
  38 H38            6.1202     5.1518    -3.9197 H       
  39 H39            1.7190     6.5725    -0.4297 H       
  40 H40           -3.8453     8.0464    -2.0009 H       
  41 H41           -3.9121     7.9792     0.4556 H       
  42 H42           -1.8938     7.3986     1.7367 H       
  43 H43            0.2042     6.8756     0.5682 H       
@<TRIPOS>BOND
   1    1    2 ar
   2    1    6 ar
   3    1   30 1
   4    2    3 ar
   5    2   31 1
   6    3    4 ar
   7    3   32 1
   8    4    5 ar
   9    4   33 1
  10    5    6 ar
  11    5    7 1
  12    6    9 1
  13    7    8 am
  14    7   26 2
  15    8    9 am
  16    8   10 1
  17    9   25 2
  18   10   11 1
  19   10   34 1
  20   10   35 1
  21   11   12 ar
  22   11   16 ar
  23   12   13 ar
  24   12   17 1
  25   13   14 ar
  26   13   36 1
  27   14   15 ar
  28   14   37 1
  29   15   16 ar
  30   15   38 1
  31   16   27 1
  32   17   18 am
  33   17   39 1
  34   18   19 1
  35   18   28 2
  36   19   20 ar
  37   19   24 ar
  38   20   21 ar
  39   20   29 1
  40   21   22 ar
  41   21   40 1
  42   22   23 ar
  43   22   41 1
  44   23   24 ar
  45   23   42 1
  46   24   43 1

#	End of record

