#	Name: ASD00311047
#	Creating user name:	WinNT
#	Creation time:	15. 06. 2019 18:34

#	Modifying user name:	WinNT
#	Modification time:	15. 06. 2019 18:34

#	Program:	/corina/corina34_cracker 3.40 0067  02.08.2006

@<TRIPOS>MOLECULE
ASD00311047
  40   43    0    0    0
SMALL
NO_CHARGES


@<TRIPOS>ATOM
   1 C1            -0.0167     1.3773     0.0096 C.2     
   2 C2             0.0021    -0.0041     0.0020 C.2     
   3 C3             1.2588    -0.6767    -0.0131 C.2     
   4 C4             2.4313     0.0668    -0.0199 C.2     
   5 C5             2.3575     1.4744    -0.0117 C.2     
   6 N6             1.1651     2.0898     0.0022 N.am    
   7 C7            -1.3434    -0.5755     0.0118 C.2     
   8 C8            -2.3233     0.3267     0.0260 C.2     
   9 S9            -1.6790     1.9564     0.0358 S.3     
  10 O10            3.3826     2.1364    -0.0176 O.2     
  11 C11           -1.5959    -2.0355     0.0059 C.ar    
  12 C12           -2.2069    -2.6447     1.1015 C.ar    
  13 C13           -2.4399    -4.0047     1.0900 C.ar    
  14 C14           -2.0687    -4.7636    -0.0055 C.ar    
  15 C15           -1.4618    -4.1650    -1.0952 C.ar    
  16 C16           -1.2288    -2.8050    -1.0977 C.ar    
  17 C17            3.7478    -0.6129    -0.0352 C.ar    
  18 C18            4.5931    -0.4749    -1.1359 C.ar    
  19 C19            5.8181    -1.1087    -1.1464 C.ar    
  20 C20            6.2097    -1.8836    -0.0635 C.ar    
  21 C21            5.3709    -2.0236     1.0335 C.ar    
  22 C22            4.1472    -1.3876     1.0536 C.ar    
  23 O23            7.4176    -2.5072    -0.0775 O.3     
  24 C24            7.7575    -3.2888     1.0695 C.3     
  25 O25            1.3087    -2.0295    -0.0204 O.3     
  26 Cl26          -4.0154    -0.0610     0.0400 Cl      
  27 H27            1.1330     3.0593     0.0077 H       
  28 H28           -2.4968    -2.0533     1.9574 H       
  29 H29           -2.9126    -4.4777     1.9380 H       
  30 H30           -2.2531    -5.8277    -0.0100 H       
  31 H31           -1.1739    -4.7627    -1.9474 H       
  32 H32           -0.7591    -2.3380    -1.9508 H       
  33 H33            4.2886     0.1273    -1.9792 H       
  34 H34            6.4731    -1.0023    -1.9985 H       
  35 H35            5.6788    -2.6276     1.8742 H       
  36 H36            3.4970    -1.4931     1.9095 H       
  37 H37            8.7441    -3.7302     0.9290 H       
  38 H38            7.7672    -2.6513     1.9537 H       
  39 H39            7.0204    -4.0809     1.2009 H       
  40 H40            2.2059    -2.3900    -0.0307 H       
@<TRIPOS>BOND
   1    1    2 2
   2    1    6 1
   3    1    9 1
   4    2    3 1
   5    2    7 1
   6    3    4 2
   7    3   25 1
   8    4    5 1
   9    4   17 1
  10    5    6 am
  11    5   10 2
  12    6   27 1
  13    7    8 2
  14    7   11 1
  15    8    9 1
  16    8   26 1
  17   11   12 ar
  18   11   16 ar
  19   12   13 ar
  20   12   28 1
  21   13   14 ar
  22   13   29 1
  23   14   15 ar
  24   14   30 1
  25   15   16 ar
  26   15   31 1
  27   16   32 1
  28   17   18 ar
  29   17   22 ar
  30   18   19 ar
  31   18   33 1
  32   19   20 ar
  33   19   34 1
  34   20   21 ar
  35   20   23 1
  36   21   22 ar
  37   21   35 1
  38   22   36 1
  39   23   24 1
  40   24   37 1
  41   24   38 1
  42   24   39 1
  43   25   40 1

#	End of record

