#	Name: ASD03331496
#	Creating user name:	WinNT
#	Creation time:	15. 06. 2019 20:39

#	Modifying user name:	WinNT
#	Modification time:	15. 06. 2019 20:39

#	Program:	/corina/corina34_cracker 3.40 0067  02.08.2006

@<TRIPOS>MOLECULE
ASD03331496
  56   58    0    0    0
SMALL
NO_CHARGES


@<TRIPOS>ATOM
   1 C1             0.3412     0.8039     1.7708 C.ar    
   2 C2             0.2651    -0.6084     1.3362 C.2     
   3 N3            -0.7813    -1.4548     1.5612 N.pl3   
   4 C4            -0.4500    -2.6573     1.0282 C.2     
   5 C5             0.7786    -2.5238     0.4601 C.2     
   6 N6             1.1904    -1.2534     0.6655 N.2     
   7 C7             1.5246    -3.5746    -0.2547 C.2     
   8 N8             2.7398    -3.3052    -0.7717 N.am    
   9 C9             1.5772     1.4454     1.8547 C.ar    
  10 O10            1.0437    -4.6848    -0.3782 O.2     
  11 C11            3.4814    -4.3498    -1.4824 C.3     
  12 C12            3.0307    -4.3907    -2.9439 C.3     
  13 C13            4.9568    -4.0494    -1.4198 C.2     
  14 C14            3.2440    -3.0166    -3.5820 C.3     
  15 C15            3.8504    -5.4374    -3.7012 C.3     
  16 C16            1.5472    -4.7591    -3.0100 C.3     
  17 C17            1.6414     2.7627     2.2601 C.ar    
  18 C18            0.4834     3.4471     2.5835 C.ar    
  19 C19           -0.7454     2.8166     2.5023 C.ar    
  20 C20           -0.8234     1.5014     2.0927 C.ar    
  21 N21            5.8541    -5.0249    -1.6642 N.am    
  22 O22            5.3368    -2.9298    -1.1497 O.2     
  23 C23            7.2861    -4.7596    -1.5051 C.3     
  24 C24           -2.0445    -1.1353     2.2310 C.3     
  25 C25           -2.6252    -2.4075     2.8532 C.3     
  26 O26           -3.4356    -3.0909     1.8951 O.3     
  27 C27           -2.7440    -3.5207     0.7258 C.3     
  28 C28           -1.3048    -3.8953     1.0946 C.3     
  29 H29            3.1233    -2.4197    -0.6732 H       
  30 H30            2.4819     0.9119     1.6032 H       
  31 H31            3.2871    -5.3152    -1.0151 H       
  32 H32            4.3009    -2.7542    -3.5349 H       
  33 H33            2.9229    -3.0457    -4.6232 H       
  34 H34            2.6601    -2.2709    -3.0424 H       
  35 H35            3.7017    -6.4157    -3.2441 H       
  36 H36            3.5265    -5.4695    -4.7415 H       
  37 H37            4.9068    -5.1728    -3.6576 H       
  38 H38            0.9633    -4.0134    -2.4705 H       
  39 H39            1.2261    -4.7882    -4.0513 H       
  40 H40            1.3953    -5.7380    -2.5555 H       
  41 H41            2.5976     3.2604     2.3255 H       
  42 H42            0.5389     4.4779     2.9010 H       
  43 H43           -1.6458     3.3562     2.7564 H       
  44 H44           -1.7833     1.0103     2.0294 H       
  45 H45            5.5518    -5.9027    -1.9453 H       
  46 H46            7.8513    -5.6601    -1.7452 H       
  47 H47            7.5832    -3.9543    -2.1769 H       
  48 H48            7.4892    -4.4670    -0.4750 H       
  49 H49           -1.8650    -0.3974     3.0129 H       
  50 H50           -2.7494    -0.7314     1.5043 H       
  51 H51           -1.8113    -3.0597     3.1699 H       
  52 H52           -3.2329    -2.1426     3.7184 H       
  53 H53           -3.2489    -4.3894     0.3034 H       
  54 H54           -2.7332    -2.7141    -0.0073 H       
  55 H55           -0.9285    -4.6375     0.3906 H       
  56 H56           -1.2808    -4.3022     2.1055 H       
@<TRIPOS>BOND
   1    1    2 1
   2    1    9 ar
   3    1   20 ar
   4    2    3 1
   5    2    6 2
   6    3    4 1
   7    3   24 1
   8    4    5 2
   9    4   28 1
  10    5    6 1
  11    5    7 1
  12    7    8 am
  13    7   10 2
  14    8   11 1
  15    8   29 1
  16    9   17 ar
  17    9   30 1
  18   11   12 1
  19   11   13 1
  20   11   31 1
  21   12   14 1
  22   12   15 1
  23   12   16 1
  24   13   21 am
  25   13   22 2
  26   14   32 1
  27   14   33 1
  28   14   34 1
  29   15   35 1
  30   15   36 1
  31   15   37 1
  32   16   38 1
  33   16   39 1
  34   16   40 1
  35   17   18 ar
  36   17   41 1
  37   18   19 ar
  38   18   42 1
  39   19   20 ar
  40   19   43 1
  41   20   44 1
  42   21   23 1
  43   21   45 1
  44   23   46 1
  45   23   47 1
  46   23   48 1
  47   24   25 1
  48   24   49 1
  49   24   50 1
  50   25   26 1
  51   25   51 1
  52   25   52 1
  53   26   27 1
  54   27   28 1
  55   27   53 1
  56   27   54 1
  57   28   55 1
  58   28   56 1

#	End of record

