#	Name: ASD09790005
#	Creating user name:	WinNT
#	Creation time:	15. 06. 2019 21:23

#	Modifying user name:	WinNT
#	Modification time:	15. 06. 2019 21:23

#	Program:	/corina/corina34_cracker 3.40 0067  02.08.2006

@<TRIPOS>MOLECULE
ASD09790005
  43   47    0    0    0
SMALL
NO_CHARGES


@<TRIPOS>ATOM
   1 C1            -0.0034     1.4511     0.0449 C.2     
   2 C2             0.0188    -0.0281     0.0756 C.ar    
   3 C3             1.2313    -0.6723     0.3667 C.ar    
   4 O4             2.3512     0.0334     0.6222 O.3     
   5 C5             2.4541     1.3429     0.3180 C.ar    
   6 C6             1.3133     2.1134     0.0306 C.ar    
   7 C7            -1.1326    -0.7693    -0.1794 C.ar    
   8 C8            -1.0761    -2.1465    -0.1484 C.ar    
   9 C9             0.1202    -2.7873     0.1350 C.ar    
  10 C10            1.2652    -2.0630     0.3903 C.ar    
  11 C11            1.4318     3.4773    -0.2649 C.ar    
  12 C12            3.7015     1.9501     0.2855 C.ar    
  13 C13            3.8140     3.2987    -0.0158 C.ar    
  14 C14            2.6851     4.0628    -0.2882 C.ar    
  15 O15           -1.0448     2.0819     0.0275 O.2     
  16 O16            0.3261     4.2186    -0.5267 O.3     
  17 O17            5.0405     3.8798    -0.0450 O.3     
  18 C18            5.8764     3.4958    -1.0307 C.2     
  19 C19            7.1826     4.1579    -1.1883 C.ar    
  20 O20            5.5521     2.6033    -1.7891 O.2     
  21 C21            8.1543     3.6685    -2.1640 C.ar    
  22 C22            7.5147     5.2646    -0.4165 C.ar    
  23 C23            8.7460     5.8871    -0.5679 C.ar    
  24 C24            9.6682     5.4457    -1.4668 C.ar    
  25 C25            9.3985     4.3349    -2.2835 C.ar    
  26 C26            8.8163     2.1376    -3.8735 C.ar    
  27 C27            7.8814     2.5615    -2.9766 C.ar    
  28 C28           10.3386     3.8703    -3.2196 C.ar    
  29 C29           10.0404     2.7911    -3.9942 C.ar    
  30 H30           -2.0638    -0.2684    -0.3995 H       
  31 H31           -1.9653    -2.7272    -0.3450 H       
  32 H32            0.1557    -3.8665     0.1561 H       
  33 H33            2.1900    -2.5760     0.6094 H       
  34 H34            4.5879     1.3700     0.4960 H       
  35 H35            2.7863     5.1131    -0.5181 H       
  36 H36           -0.0687     4.6261     0.2564 H       
  37 H37            6.8085     5.6440     0.3072 H       
  38 H38            8.9789     6.7458     0.0443 H       
  39 H39           10.6154     5.9571    -1.5557 H       
  40 H40            8.6045     1.2835    -4.4998 H       
  41 H41            6.9360     2.0463    -2.8930 H       
  42 H42           11.2920     4.3669    -3.3240 H       
  43 H43           10.7647     2.4353    -4.7120 H       
@<TRIPOS>BOND
   1    1    2 1
   2    1    6 1
   3    1   15 2
   4    2    3 ar
   5    2    7 ar
   6    3    4 1
   7    3   10 ar
   8    4    5 1
   9    5   12 ar
  10    5    6 ar
  11    6   11 ar
  12    7    8 ar
  13    7   30 1
  14    8    9 ar
  15    8   31 1
  16    9   10 ar
  17    9   32 1
  18   10   33 1
  19   11   14 ar
  20   11   16 1
  21   12   13 ar
  22   12   34 1
  23   13   14 ar
  24   13   17 1
  25   14   35 1
  26   16   36 1
  27   17   18 1
  28   18   19 1
  29   18   20 2
  30   19   22 ar
  31   19   21 ar
  32   21   25 ar
  33   21   27 ar
  34   22   23 ar
  35   22   37 1
  36   23   24 ar
  37   23   38 1
  38   24   25 ar
  39   24   39 1
  40   25   28 ar
  41   26   27 ar
  42   26   29 ar
  43   26   40 1
  44   27   41 1
  45   28   29 ar
  46   28   42 1
  47   29   43 1

#	End of record

