#	Name: ASD01883701
#	Creating user name:	WinNT
#	Creation time:	15. 06. 2019 19:46

#	Modifying user name:	WinNT
#	Modification time:	15. 06. 2019 19:46

#	Program:	/corina/corina34_cracker 3.40 0067  02.08.2006

@<TRIPOS>MOLECULE
ASD01883701
  54   57    0    0    0
SMALL
NO_CHARGES


@<TRIPOS>ATOM
   1 C1            -0.0169     1.3984     0.0097 C.2     
   2 C2             0.0021    -0.0041     0.0020 C.2     
   3 C3            -1.2223    -0.7047     0.0099 C.2     
   4 C4            -2.3969    -0.0475     0.0246 C.2     
   5 N5            -2.4615     1.3157     0.0325 N.pl3   
   6 C6            -1.3172     2.0717     0.0319 C.2     
   7 C7            -3.5157     2.1918     0.0473 C.2     
   8 C8            -2.9979     3.4382     0.0490 C.2     
   9 N9            -1.6639     3.3462     0.0405 N.2     
  10 C10           -4.9788     1.8308     0.0592 C.3     
  11 C11           -5.5177     1.8384    -1.3727 C.3     
  12 C12            1.2855    -0.7368    -0.0146 C.ar    
  13 C13            1.6507    -1.5331     1.0730 C.ar    
  14 C14            2.8473    -2.2155     1.0549 C.ar    
  15 C15            3.6922    -2.1119    -0.0448 C.ar    
  16 C16            3.3317    -1.3185    -1.1309 C.ar    
  17 C17            2.1332    -0.6387    -1.1210 C.ar    
  18 F18           -4.8135     0.9052    -2.1410 F       
  19 F19           -6.8760     1.5034    -1.3615 F       
  20 F20           -5.3565     3.1137    -1.9248 F       
  21 N21            4.9027    -2.8034    -0.0598 N.pl3   
  22 C22            5.2836    -3.6381     1.0823 C.3     
  23 C23            6.8071    -3.7689     1.1327 C.3     
  24 C24            7.2050    -4.6407     2.3255 C.3     
  25 C25            6.5787    -6.0284     2.1743 C.3     
  26 C26            5.0551    -5.8976     2.1238 C.3     
  27 C27            4.6573    -5.0258     0.9311 C.3     
  28 C28            7.0781    -6.6752     0.8808 C.3     
  29 O29            6.9502    -6.8427     3.2883 O.3     
  30 Cl30           4.3896    -1.1915    -2.5014 Cl      
  31 C31            1.2014     2.1509     0.0021 C.1     
  32 N32            2.1678     2.7479    -0.0039 N.1     
  33 H33           -1.2171    -1.7847     0.0037 H       
  34 H34           -3.3154    -0.6157     0.0299 H       
  35 H35           -3.5661     4.3566     0.0590 H       
  36 H36           -5.1044     0.8372     0.4895 H       
  37 H37           -5.5275     2.5580     0.6578 H       
  38 H38            0.9956    -1.6137     1.9279 H       
  39 H39            3.1298    -2.8314     1.8959 H       
  40 H40            1.8536    -0.0236    -1.9635 H       
  41 H41            5.4927    -2.7318    -0.8264 H       
  42 H42            4.9278    -3.1773     2.0038 H       
  43 H43            7.1630    -4.2297     0.2112 H       
  44 H44            7.2533    -2.7803     1.2405 H       
  45 H45            8.2904    -4.7339     2.3614 H       
  46 H46            6.8491    -4.1799     3.2470 H       
  47 H47            4.6089    -6.8863     2.0161 H       
  48 H48            4.6993    -5.4369     3.0453 H       
  49 H49            3.5719    -4.9326     0.8952 H       
  50 H50            5.0131    -5.4866     0.0096 H       
  51 H51            8.1635    -6.7684     0.9167 H       
  52 H52            6.6319    -7.6638     0.7730 H       
  53 H53            6.7947    -6.0541     0.0310 H       
  54 H54            6.5877    -7.7387     3.2588 H       
@<TRIPOS>BOND
   1    1    2 2
   2    1   31 1
   3    1    6 1
   4    2    3 1
   5    2   12 1
   6    3    4 2
   7    3   33 1
   8    4    5 1
   9    4   34 1
  10    5    6 1
  11    5    7 1
  12    6    9 2
  13    7    8 2
  14    7   10 1
  15    8    9 1
  16    8   35 1
  17   10   11 1
  18   10   36 1
  19   10   37 1
  20   11   18 1
  21   11   19 1
  22   11   20 1
  23   12   13 ar
  24   12   17 ar
  25   13   14 ar
  26   13   38 1
  27   14   15 ar
  28   14   39 1
  29   15   16 ar
  30   15   21 1
  31   16   17 ar
  32   16   30 1
  33   17   40 1
  34   21   22 1
  35   21   41 1
  36   22   23 1
  37   22   27 1
  38   22   42 1
  39   23   24 1
  40   23   43 1
  41   23   44 1
  42   24   25 1
  43   24   45 1
  44   24   46 1
  45   25   26 1
  46   25   28 1
  47   25   29 1
  48   26   27 1
  49   26   47 1
  50   26   48 1
  51   27   49 1
  52   27   50 1
  53   28   51 1
  54   28   52 1
  55   28   53 1
  56   29   54 1
  57   31   32 3

#	End of record

