#	Name: ASD00431277
#	Creating user name:	WinNT
#	Creation time:	15. 06. 2019 18:35

#	Modifying user name:	WinNT
#	Modification time:	15. 06. 2019 18:35

#	Program:	/corina/corina34_cracker 3.40 0067  02.08.2006

@<TRIPOS>MOLECULE
ASD00431277
  35   36    0    0    0
SMALL
NO_CHARGES


@<TRIPOS>ATOM
   1 C1            -4.4817    -6.9950     1.5410 C.2     
   2 C2            -3.2897    -6.2413     1.1318 C.ar    
   3 C3            -2.9989    -6.0700    -0.2274 C.ar    
   4 C4            -1.8847    -5.3655    -0.6042 C.ar    
   5 C5            -1.0434    -4.8216     0.3610 C.ar    
   6 C6            -1.3278    -4.9889     1.7124 C.ar    
   7 C7            -2.4429    -5.6864     2.0995 C.ar    
   8 O8            -4.7316    -7.1420     2.7188 O.2     
   9 O9             0.0581    -4.1263    -0.0169 O.3     
  10 C10            1.2654    -4.7450     0.0728 C.ar    
  11 C11            1.3381    -6.0676     0.4850 C.ar    
  12 C12            2.5646    -6.6962     0.5756 C.ar    
  13 C13            3.7237    -6.0050     0.2549 C.ar    
  14 C14            3.6511    -4.6824    -0.1569 C.ar    
  15 C15            2.4242    -4.0555    -0.2535 C.ar    
  16 O16            4.9311    -6.6238     0.3446 O.3     
  17 C17            6.0905    -5.8204     0.1156 C.3     
  18 C18            7.2911    -6.4416     0.8322 C.3     
  19 C19            6.3735    -5.7497    -1.3863 C.3     
  20 H20           -5.1383    -7.4145     0.7932 H       
  21 H21           -3.6511    -6.4925    -0.9775 H       
  22 H22           -1.6596    -5.2329    -1.6521 H       
  23 H23           -0.6713    -4.5650     2.4579 H       
  24 H24           -2.6652    -5.8118     3.1489 H       
  25 H25            0.4358    -6.6056     0.7354 H       
  26 H26            2.6213    -7.7259     0.8966 H       
  27 H27            4.5537    -4.1441    -0.4059 H       
  28 H28            2.3673    -3.0272    -0.5787 H       
  29 H29            5.9178    -4.8153     0.5005 H       
  30 H30            7.4638    -7.4466     0.4473 H       
  31 H31            8.1754    -5.8287     0.6576 H       
  32 H32            7.0894    -6.4919     1.9022 H       
  33 H33            7.2578    -5.1369    -1.5609 H       
  34 H34            6.5462    -6.7548    -1.7712 H       
  35 H35            5.5181    -5.3071    -1.8968 H       
@<TRIPOS>BOND
   1    1    2 1
   2    1    8 2
   3    1   20 1
   4    2    3 ar
   5    2    7 ar
   6    3    4 ar
   7    3   21 1
   8    4    5 ar
   9    4   22 1
  10    5    6 ar
  11    5    9 1
  12    6    7 ar
  13    6   23 1
  14    7   24 1
  15    9   10 1
  16   10   11 ar
  17   10   15 ar
  18   11   12 ar
  19   11   25 1
  20   12   13 ar
  21   12   26 1
  22   13   14 ar
  23   13   16 1
  24   14   15 ar
  25   14   27 1
  26   15   28 1
  27   16   17 1
  28   17   18 1
  29   17   19 1
  30   17   29 1
  31   18   30 1
  32   18   31 1
  33   18   32 1
  34   19   33 1
  35   19   34 1
  36   19   35 1

#	End of record

