#	Name: ASD01231054
#	Creating user name:	WinNT
#	Creation time:	15. 06. 2019 19:15

#	Modifying user name:	WinNT
#	Modification time:	15. 06. 2019 19:15

#	Program:	/corina/corina34_cracker 3.40 0067  02.08.2006

@<TRIPOS>MOLECULE
ASD01231054
  47   50    0    0    0
SMALL
NO_CHARGES


@<TRIPOS>ATOM
   1 S1            -0.0203     1.6432     0.0111 S.o2    
   2 N2             0.0021    -0.0041     0.0020 N.am    
   3 C3             1.0582    -0.7115     0.0766 C.2     
   4 N4             2.3239    -0.2014     0.2156 N.pl3   
   5 C5             2.5547     1.1284     0.7685 C.3     
   6 C6             1.7187     2.1517    -0.0028 C.3     
   7 C7             0.9691    -2.2282     0.0263 C.3     
   8 C8             2.0432    -2.7791     0.9676 C.3     
   9 C9             3.4382    -2.3754     0.5096 C.3     
  10 C10            3.4443    -1.0396    -0.2239 C.3     
  11 C11           -0.3942    -2.6772     0.4854 C.ar    
  12 C12           -1.2060    -3.4011    -0.3683 C.ar    
  13 C13           -2.4560    -3.8140     0.0496 C.ar    
  14 C14           -2.8970    -3.5019     1.3286 C.ar    
  15 C15           -2.0794    -2.7752     2.1837 C.ar    
  16 C16           -0.8285    -2.3693     1.7616 C.ar    
  17 N17           -4.1653    -3.9191     1.7555 N.pl3   
  18 N18           -5.3139    -4.0129     0.9590 N.2     
  19 C19           -6.2985    -4.4378     1.7091 C.2     
  20 C20           -5.8101    -4.6285     3.0064 C.2     
  21 C21           -4.4954    -4.3080     3.0079 C.2     
  22 C22           -7.7147    -4.6794     1.2542 C.3     
  23 F23           -7.7990    -4.4892    -0.1293 F       
  24 F24           -8.0882    -5.9906     1.5682 F       
  25 F25           -8.5718    -3.7828     1.9013 F       
  26 C26           -3.5667    -4.3703     4.1931 C.3     
  27 O27           -0.6472     1.9881    -1.2166 O.2     
  28 O28           -0.6237     1.9749     1.2541 O.2     
  29 H29            2.2653     1.1405     1.8193 H       
  30 H30            3.6113     1.3809     0.6793 H       
  31 H31            2.0726     2.2083    -1.0322 H       
  32 H32            1.8152     3.1296     0.4690 H       
  33 H33            1.1525    -2.5769    -0.9900 H       
  34 H34            1.8709    -2.3915     1.9717 H       
  35 H35            1.9753    -3.8668     0.9892 H       
  36 H36            4.0887    -2.3026     1.3812 H       
  37 H37            3.8279    -3.1455    -0.1561 H       
  38 H38            3.3602    -1.2183    -1.2958 H       
  39 H39            4.3816    -0.5221    -0.0194 H       
  40 H40           -0.8625    -3.6437    -1.3631 H       
  41 H41           -3.0899    -4.3788    -0.6178 H       
  42 H42           -2.4197    -2.5309     3.1791 H       
  43 H43           -0.1906    -1.8072     2.4276 H       
  44 H44           -6.3807    -4.9744     3.8556 H       
  45 H45           -3.5819    -3.4147     4.7172 H       
  46 H46           -3.8929    -5.1607     4.8691 H       
  47 H47           -2.5536    -4.5806     3.8502 H       
@<TRIPOS>BOND
   1    1    2 am
   2    1    6 1
   3    1   27 2
   4    1   28 2
   5    2    3 2
   6    3    4 1
   7    3    7 1
   8    4    5 1
   9    4   10 1
  10    5    6 1
  11    5   29 1
  12    5   30 1
  13    6   31 1
  14    6   32 1
  15    7    8 1
  16    7   11 1
  17    7   33 1
  18    8    9 1
  19    8   34 1
  20    8   35 1
  21    9   10 1
  22    9   36 1
  23    9   37 1
  24   10   38 1
  25   10   39 1
  26   11   12 ar
  27   11   16 ar
  28   12   13 ar
  29   12   40 1
  30   13   14 ar
  31   13   41 1
  32   14   15 ar
  33   14   17 1
  34   15   16 ar
  35   15   42 1
  36   16   43 1
  37   17   18 1
  38   17   21 1
  39   18   19 2
  40   19   20 1
  41   19   22 1
  42   20   21 2
  43   20   44 1
  44   21   26 1
  45   22   23 1
  46   22   24 1
  47   22   25 1
  48   26   45 1
  49   26   46 1
  50   26   47 1

#	End of record

