#	Name: ASD04550046
#	Creating user name:	WinNT
#	Creation time:	15. 06. 2019 20:49

#	Modifying user name:	WinNT
#	Modification time:	15. 06. 2019 20:49

#	Program:	/corina/corina34_cracker 3.40 0067  02.08.2006

@<TRIPOS>MOLECULE
ASD04550046
  35   35    0    0    0
SMALL
NO_CHARGES


@<TRIPOS>ATOM
   1 C1             0.3765     1.1822     0.2270 C.ar    
   2 C2             0.2161    -0.1897     0.0786 C.ar    
   3 C3             1.3327    -1.0079    -0.0360 C.ar    
   4 C4             2.5980    -0.4556    -0.0022 C.ar    
   5 C5             2.7541     0.9104     0.1460 C.ar    
   6 C6             1.6446     1.7280     0.2600 C.ar    
   7 C7             4.1364     1.5095     0.1830 C.3     
   8 C8             4.2908     2.5070    -0.9668 C.3     
   9 N9            -1.0651    -0.7450     0.0453 N.am    
  10 S10           -1.6429    -1.5733     1.3577 S.o2    
  11 C11           -1.7585    -0.3231     2.6669 C.3     
  12 O12           -2.9386    -2.0002     0.9600 O.2     
  13 O13           -0.6208    -2.5145     1.6558 O.2     
  14 C14           -2.7126     0.7892     2.2271 C.3     
  15 C15           -2.2881    -0.9727     3.9470 C.3     
  16 C16            4.3407     2.2207     1.4959 C.2     
  17 O17            3.4548     2.2391     2.3172 O.2     
  18 O18            5.5069     2.8336     1.7528 O.3     
  19 H19           -0.4897     1.8217     0.3119 H       
  20 H20            1.2115    -2.0749    -0.1511 H       
  21 H21            3.4666    -1.0912    -0.0913 H       
  22 H22            1.7700     2.7944     0.3757 H       
  23 H23            4.8784     0.7179     0.0793 H       
  24 H24            3.5488     3.2987    -0.8631 H       
  25 H25            5.2906     2.9404    -0.9400 H       
  26 H26            4.1431     1.9927    -1.9163 H       
  27 H27           -1.6163    -0.6455    -0.7466 H       
  28 H28           -0.7711     0.0984     2.8551 H       
  29 H29           -2.7821     1.5404     3.0138 H       
  30 H30           -2.3353     1.2519     1.3152 H       
  31 H31           -3.7000     0.3677     2.0390 H       
  32 H32           -1.6084    -1.7651     4.2603 H       
  33 H33           -2.3576    -0.2214     4.7337 H       
  34 H34           -3.2755    -1.3942     3.7589 H       
  35 H35            5.5910     3.2764     2.6083 H       
@<TRIPOS>BOND
   1    1    2 ar
   2    1    6 ar
   3    1   19 1
   4    2    3 ar
   5    2    9 1
   6    3    4 ar
   7    3   20 1
   8    4    5 ar
   9    4   21 1
  10    5    6 ar
  11    5    7 1
  12    6   22 1
  13    7    8 1
  14    7   16 1
  15    7   23 1
  16    8   24 1
  17    8   25 1
  18    8   26 1
  19    9   10 am
  20    9   27 1
  21   10   11 1
  22   10   12 2
  23   10   13 2
  24   11   14 1
  25   11   15 1
  26   11   28 1
  27   14   29 1
  28   14   30 1
  29   14   31 1
  30   15   32 1
  31   15   33 1
  32   15   34 1
  33   16   17 2
  34   16   18 1
  35   18   35 1

#	End of record

