#	Name: ASD01917903
#	Creating user name:	WinNT
#	Creation time:	15. 06. 2019 20:10

#	Modifying user name:	WinNT
#	Modification time:	15. 06. 2019 20:10

#	Program:	/corina/corina34_cracker 3.40 0067  02.08.2006

@<TRIPOS>MOLECULE
ASD01917903
  46   50    0    0    0
SMALL
NO_CHARGES


@<TRIPOS>ATOM
   1 C1            -0.0148     1.3200    -0.0017 C.2     
   2 C2            -0.0103    -0.0261     0.0071 C.2     
   3 C3            -1.2835    -0.8581     0.0237 C.3     
   4 C4            -2.4464     0.0146     0.5017 C.3     
   5 N5            -2.4115     1.2982    -0.2152 N.am    
   6 C6            -1.2558     2.1827     0.0157 C.3     
   7 C7            -3.4039     1.6536    -1.0549 C.2     
   8 O8            -4.2928     0.8655    -1.3136 O.2     
   9 S9             1.6485     1.8885    -0.0286 S.3     
  10 C10            2.2082     0.2735    -0.0212 C.2     
  11 N11            1.2120    -0.5403    -0.0019 N.2     
  12 C12            3.6580    -0.1374    -0.0356 C.3     
  13 O13            4.0996    -0.2788    -1.3873 O.3     
  14 C14            5.3935    -0.6477    -1.5783 C.ar    
  15 C15            5.8890    -0.8036    -2.8647 C.ar    
  16 C16            7.2047    -1.1787    -3.0562 C.ar    
  17 C17            8.0275    -1.3988    -1.9670 C.ar    
  18 C18            7.5360    -1.2445    -0.6839 C.ar    
  19 C19            6.2228    -0.8636    -0.4872 C.ar    
  20 C20           -3.4117     3.0003    -1.6609 C.ar    
  21 C21           -3.8881     3.1760    -2.9666 C.ar    
  22 C22           -3.9004     4.4153    -3.5377 C.ar    
  23 C23           -3.4388     5.5167    -2.8258 C.ar    
  24 C24           -2.9572     5.3585    -1.5130 C.ar    
  25 C25           -2.9511     4.0921    -0.9312 C.ar    
  26 N26           -3.3239     6.8596    -3.1127 N.pl3   
  27 C27           -2.7967     7.4666    -2.0146 C.2     
  28 N28           -2.5818     6.5898    -1.0783 N.2     
  29 H29           -1.4922    -1.2248    -0.9813 H       
  30 H30           -1.1584    -1.7021     0.7020 H       
  31 H31           -3.3899    -0.4915     0.2971 H       
  32 H32           -2.3520     0.1927     1.5729 H       
  33 H33           -1.3534     2.6744     0.9835 H       
  34 H34           -1.1972     2.9296    -0.7760 H       
  35 H35            4.2565     0.6241     0.4643 H       
  36 H36            3.7713    -1.0883     0.4850 H       
  37 H37            5.2466    -0.6322    -3.7158 H       
  38 H38            7.5908    -1.3006    -4.0574 H       
  39 H39            9.0558    -1.6920    -2.1188 H       
  40 H40            8.1806    -1.4177     0.1652 H       
  41 H41            5.8393    -0.7432     0.5152 H       
  42 H42           -4.2478     2.3245    -3.5253 H       
  43 H43           -4.2692     4.5408    -4.5450 H       
  44 H44           -2.5840     3.9577     0.0756 H       
  45 H45           -3.5725     7.2925    -3.9444 H       
  46 H46           -2.5873     8.5229    -1.9326 H       
@<TRIPOS>BOND
   1    1    2 2
   2    1    9 1
   3    1    6 1
   4    2    3 1
   5    2   11 1
   6    3    4 1
   7    3   29 1
   8    3   30 1
   9    4    5 1
  10    4   31 1
  11    4   32 1
  12    5    6 1
  13    5    7 am
  14    6   33 1
  15    6   34 1
  16    7    8 2
  17    7   20 1
  18    9   10 1
  19   10   11 2
  20   10   12 1
  21   12   13 1
  22   12   35 1
  23   12   36 1
  24   13   14 1
  25   14   15 ar
  26   14   19 ar
  27   15   16 ar
  28   15   37 1
  29   16   17 ar
  30   16   38 1
  31   17   18 ar
  32   17   39 1
  33   18   19 ar
  34   18   40 1
  35   19   41 1
  36   20   21 ar
  37   20   25 ar
  38   21   22 ar
  39   21   42 1
  40   22   23 ar
  41   22   43 1
  42   23   24 ar
  43   23   26 1
  44   24   25 ar
  45   24   28 1
  46   25   44 1
  47   26   27 1
  48   26   45 1
  49   27   28 2
  50   27   46 1

#	End of record

