#	Name: ASD01881152
#	Creating user name:	WinNT
#	Creation time:	15. 06. 2019 19:42

#	Modifying user name:	WinNT
#	Modification time:	15. 06. 2019 19:42

#	Program:	/corina/corina34_cracker 3.40 0067  02.08.2006

@<TRIPOS>MOLECULE
ASD01881152
  54   57    0    0    0
SMALL
NO_CHARGES


@<TRIPOS>ATOM
   1 N1             0.3128     1.3240    -0.8035 N.ar    
   2 C2             0.2633     0.0089    -0.7421 C.ar    
   3 N3             1.0707    -0.6813     0.0381 N.ar    
   4 C4             1.9713    -0.0737     0.7974 C.ar    
   5 C5             2.0597     1.3043     0.7658 C.ar    
   6 C6             1.1896     2.0052    -0.0715 C.ar    
   7 C7             3.0701     2.0331     1.6139 C.3     
   8 O8             4.3013     2.1452     0.8972 O.3     
   9 C9             5.3236     2.7802     1.5244 C.ar    
  10 C10            6.5504     2.9240     0.8828 C.ar    
  11 C11            7.5840     3.5666     1.5170 C.ar    
  12 C12            7.4135     4.0797     2.8074 C.ar    
  13 C13            6.1787     3.9327     3.4483 C.ar    
  14 C14            5.1426     3.2907     2.8035 C.ar    
  15 C15            9.0031     3.8852     1.1166 C.3     
  16 N16            9.5988     4.5978     2.2526 N.am    
  17 C17            8.6780     4.7076     3.2255 C.2     
  18 O18            8.8628     5.2489     4.2985 O.2     
  19 C19           -0.7448    -0.7265    -1.5869 C.3     
  20 C20            2.8873    -0.8765     1.6847 C.3     
  21 Cl21           5.9493     4.5627     5.0496 Cl      
  22 N22            1.2391     3.3881    -0.1390 N.3     
  23 C23            0.0107     3.9864     0.4035 C.3     
  24 C24            0.1323     5.5120     0.3648 C.3     
  25 O25            0.3911     5.9306    -0.9780 O.3     
  26 C26            1.5806     5.3673    -1.5375 C.3     
  27 C27            1.4737     3.8402    -1.5181 C.3     
  28 C28           11.0093     6.5392     1.7806 C.3     
  29 C29           10.9712     5.1064     2.3157 C.3     
  30 H30            2.6953     3.0289     1.8503 H       
  31 H31            3.2365     1.4788     2.5375 H       
  32 H32            6.6889     2.5300    -0.1132 H       
  33 H33            4.1891     3.1775     3.2979 H       
  34 H34            9.5531     2.9646     0.9216 H       
  35 H35            9.0089     4.5206     0.2310 H       
  36 H36           -0.3030    -0.9653    -2.5544 H       
  37 H37           -1.0374    -1.6481    -1.0837 H       
  38 H38           -1.6233    -0.0981    -1.7338 H       
  39 H39            3.7934    -1.1319     1.1353 H       
  40 H40            3.1492    -0.2879     2.5640 H       
  41 H41            2.3818    -1.7904     1.9967 H       
  42 H42           -0.8428     3.6739    -0.1982 H       
  43 H43           -0.1297     3.6585     1.4335 H       
  44 H44           -0.7983     5.9603     0.7128 H       
  45 H45            0.9526     5.8282     1.0091 H       
  46 H46            1.6975     5.7109    -2.5654 H       
  47 H47            2.4430     5.6793    -0.9485 H       
  48 H48            2.4012     3.4056    -1.8908 H       
  49 H49            0.6436     3.5254    -2.1505 H       
  50 H50           10.3596     7.1708     2.3865 H       
  51 H51           12.0304     6.9176     1.8275 H       
  52 H52           10.6650     6.5501     0.7464 H       
  53 H53           11.3155     5.0955     3.3499 H       
  54 H54           11.6210     4.4748     1.7098 H       
@<TRIPOS>BOND
   1    1    2 ar
   2    1    6 ar
   3    2    3 ar
   4    2   19 1
   5    3    4 ar
   6    4    5 ar
   7    4   20 1
   8    5    6 ar
   9    5    7 1
  10    6   22 1
  11    7    8 1
  12    7   30 1
  13    7   31 1
  14    8    9 1
  15    9   10 ar
  16    9   14 ar
  17   10   11 ar
  18   10   32 1
  19   11   12 ar
  20   11   15 1
  21   12   13 ar
  22   12   17 1
  23   13   14 ar
  24   13   21 1
  25   14   33 1
  26   15   16 1
  27   15   34 1
  28   15   35 1
  29   16   17 am
  30   16   29 1
  31   17   18 2
  32   19   36 1
  33   19   37 1
  34   19   38 1
  35   20   39 1
  36   20   40 1
  37   20   41 1
  38   22   23 1
  39   22   27 1
  40   23   24 1
  41   23   42 1
  42   23   43 1
  43   24   25 1
  44   24   44 1
  45   24   45 1
  46   25   26 1
  47   26   27 1
  48   26   46 1
  49   26   47 1
  50   27   48 1
  51   27   49 1
  52   28   29 1
  53   28   50 1
  54   28   51 1
  55   28   52 1
  56   29   53 1
  57   29   54 1

#	End of record

