#	Name: ASD02448129
#	Creating user name:	WinNT
#	Creation time:	15. 06. 2019 20:21

#	Modifying user name:	WinNT
#	Modification time:	15. 06. 2019 20:21

#	Program:	/corina/corina34_cracker 3.40 0067  02.08.2006

@<TRIPOS>MOLECULE
ASD02448129
  82   88    0    0    0
SMALL
NO_CHARGES


@<TRIPOS>ATOM
   1 C1            -0.0495    -6.5829     3.1351 C.ar    
   2 C2             0.4370    -5.4514     2.5095 C.ar    
   3 C3             0.3489    -5.3268     1.1289 C.ar    
   4 C4            -0.2282    -6.3397     0.3779 C.ar    
   5 C5            -0.7163    -7.4757     1.0090 C.ar    
   6 C6            -0.6252    -7.5942     2.3903 C.ar    
   7 N7            -1.2987    -8.4981     0.2563 N.am    
   8 C8            -1.4107    -9.9213     0.6012 C.3     
   9 C9            -2.1062   -10.6886    -0.4765 C.2     
  10 N10           -2.4889    -9.9547    -1.5309 N.am    
  11 S11           -2.0330    -8.3809    -1.2372 S.o2    
  12 O12           -2.3081   -11.8823    -0.4030 O.2     
  13 O13           -3.2237    -7.6239    -1.0688 O.2     
  14 O14           -1.0137    -8.0580    -2.1732 O.2     
  15 N15            0.8426    -4.1777     0.4952 N.pl3   
  16 C16            1.7739    -4.1404    -0.5081 C.2     
  17 C17            0.4816    -2.8942     0.7584 C.2     
  18 N18            1.1499    -2.0984    -0.0289 N.2     
  19 C19            1.9563    -2.8316    -0.8232 C.2     
  20 C20            2.8793    -2.3027    -1.8572 C.ar    
  21 C21            2.9684    -0.9284    -2.0787 C.ar    
  22 C22            3.6642    -3.1765    -2.6065 C.ar    
  23 C23            4.5214    -2.6795    -3.5675 C.ar    
  24 C24            4.6028    -1.3154    -3.7876 C.ar    
  25 C25            3.8292    -0.4417    -3.0426 C.ar    
  26 C26           -0.5265    -2.4615     1.7916 C.3     
  27 C27           -1.8704    -2.2762     1.1353 C.ar    
  28 C28           -2.7139    -3.3606     0.9741 C.ar    
  29 C29           -2.2582    -1.0212     0.7017 C.ar    
  30 C30           -3.4882    -0.8455     0.1009 C.ar    
  31 C31           -4.3398    -1.9354    -0.0690 C.ar    
  32 C32           -3.9458    -3.1966     0.3738 C.ar    
  33 C33           -5.6633    -1.7528    -0.7141 C.ar    
  34 C34           -6.5141    -2.8437    -0.8834 C.ar    
  35 C35           -6.0606    -0.4889    -1.1469 C.ar    
  36 C36           -7.2916    -0.3221    -1.7459 C.ar    
  37 C37           -8.1347    -1.4115    -1.9179 C.ar    
  38 C38           -7.7439    -2.6707    -1.4830 C.ar    
  39 Cl39           5.6835    -0.6974    -4.9975 Cl      
  40 Cl40           1.9988     0.1679    -1.1450 Cl      
  41 O41           -9.3472    -1.2441    -2.5079 O.3     
  42 C42          -10.1641    -2.4075    -2.6533 C.3     
  43 C43          -11.4801    -2.0248    -3.3334 C.3     
  44 C44          -12.3015    -3.2874    -3.6018 C.3     
  45 C45          -13.6175    -2.9047    -4.2819 C.3     
  46 C46          -14.4090    -1.9657    -3.3693 C.3     
  47 C47          -13.5876    -0.7031    -3.1010 C.3     
  48 C48          -12.2716    -1.0858    -2.4208 C.3     
  49 H49            0.0243    -6.6792     4.2083 H       
  50 H50            0.8861    -4.6625     3.0946 H       
  51 H51           -0.2980    -6.2448    -0.6957 H       
  52 H52           -1.0047    -8.4777     2.8822 H       
  53 H53           -0.4119   -10.3334     0.7452 H       
  54 H54           -1.9730   -10.0204     1.5297 H       
  55 H55           -2.9500   -10.2806    -2.3196 H       
  56 H56            2.2678    -4.9874    -0.9610 H       
  57 H57            3.6023    -4.2410    -2.4354 H       
  58 H58            5.1301    -3.3564    -4.1486 H       
  59 H59            3.8961     0.6218    -3.2184 H       
  60 H60           -0.6027    -3.2242     2.5666 H       
  61 H61           -0.2075    -1.5199     2.2385 H       
  62 H62           -2.4077    -4.3374     1.3182 H       
  63 H63           -1.5974    -0.1772     0.8338 H       
  64 H64           -3.7903     0.1349    -0.2367 H       
  65 H65           -4.6017    -4.0448     0.2444 H       
  66 H66           -6.2104    -3.8235    -0.5456 H       
  67 H67           -5.4053     0.3591    -1.0131 H       
  68 H68           -7.6002     0.6571    -2.0811 H       
  69 H69           -8.4019    -3.5164    -1.6181 H       
  70 H70           -9.6413    -3.1448    -3.2624 H       
  71 H71          -10.3726    -2.8302    -1.6704 H       
  72 H72          -11.2686    -1.5216    -4.2769 H       
  73 H73          -11.7376    -3.9563    -4.2519 H       
  74 H74          -12.5130    -3.7906    -2.6583 H       
  75 H75          -13.4060    -2.4015    -5.2254 H       
  76 H76          -14.2027    -3.8042    -4.4731 H       
  77 H77          -15.3466    -1.6931    -3.8539 H       
  78 H78          -14.6206    -2.4689    -2.4259 H       
  79 H79          -13.3761    -0.1999    -4.0445 H       
  80 H80          -14.1515    -0.0342    -2.4509 H       
  81 H81          -12.4832    -1.5890    -1.4774 H       
  82 H82          -11.6865    -0.1863    -2.2297 H       
@<TRIPOS>BOND
   1    1    2 ar
   2    1    6 ar
   3    1   49 1
   4    2    3 ar
   5    2   50 1
   6    3    4 ar
   7    3   15 1
   8    4    5 ar
   9    4   51 1
  10    5    6 ar
  11    5    7 1
  12    6   52 1
  13    7    8 1
  14    7   11 am
  15    8    9 1
  16    8   53 1
  17    8   54 1
  18    9   10 am
  19    9   12 2
  20   10   11 am
  21   10   55 1
  22   11   13 2
  23   11   14 2
  24   15   16 1
  25   15   17 1
  26   16   19 2
  27   16   56 1
  28   17   18 2
  29   17   26 1
  30   18   19 1
  31   19   20 1
  32   20   21 ar
  33   20   22 ar
  34   21   40 1
  35   21   25 ar
  36   22   23 ar
  37   22   57 1
  38   23   24 ar
  39   23   58 1
  40   24   25 ar
  41   24   39 1
  42   25   59 1
  43   26   27 1
  44   26   60 1
  45   26   61 1
  46   27   28 ar
  47   27   29 ar
  48   28   32 ar
  49   28   62 1
  50   29   30 ar
  51   29   63 1
  52   30   31 ar
  53   30   64 1
  54   31   32 ar
  55   31   33 1
  56   32   65 1
  57   33   34 ar
  58   33   35 ar
  59   34   38 ar
  60   34   66 1
  61   35   36 ar
  62   35   67 1
  63   36   37 ar
  64   36   68 1
  65   37   38 ar
  66   37   41 1
  67   38   69 1
  68   41   42 1
  69   42   43 1
  70   42   70 1
  71   42   71 1
  72   43   44 1
  73   43   48 1
  74   43   72 1
  75   44   45 1
  76   44   73 1
  77   44   74 1
  78   45   46 1
  79   45   75 1
  80   45   76 1
  81   46   47 1
  82   46   77 1
  83   46   78 1
  84   47   48 1
  85   47   79 1
  86   47   80 1
  87   48   81 1
  88   48   82 1

#	End of record

