#	Name: ASD01882591
#	Creating user name:	WinNT
#	Creation time:	15. 06. 2019 19:44

#	Modifying user name:	WinNT
#	Modification time:	15. 06. 2019 19:44

#	Program:	/corina/corina34_cracker 3.40 0067  02.08.2006

@<TRIPOS>MOLECULE
ASD01882591
  60   64    0    0    0
SMALL
NO_CHARGES


@<TRIPOS>ATOM
   1 C1             1.4231     1.5555     0.3225 C.2     
   2 C2             0.8313     0.3620    -0.1341 C.2     
   3 C3             1.6227    -0.6170    -0.6491 C.2     
   4 C4             3.0133    -0.4254    -0.7183 C.2     
   5 C5             3.5665     0.7236    -0.2765 C.2     
   6 N6             2.7849     1.7138     0.2418 N.pl3   
   7 N7             1.9051     3.4775     1.1069 N.2     
   8 N8             0.9391     2.6656     0.8551 N.2     
   9 C9             3.0472     2.9475     0.7522 C.2     
  10 C10           -0.6614     0.1716    -0.0526 C.3     
  11 F11           -0.9694    -0.6323     1.0502 F       
  12 F12           -1.2833     1.4167     0.0898 F       
  13 F13           -1.1172    -0.4464    -1.2220 F       
  14 C14            1.0108    -1.9026    -1.1432 C.3     
  15 N15            0.7678    -1.8054    -2.5887 N.3     
  16 C16            0.3954    -3.1119    -3.1491 C.3     
  17 C17            0.0741    -2.9528    -4.6370 C.3     
  18 N18            1.2447    -2.3993    -5.3319 N.3     
  19 C19            1.6171    -1.0928    -4.7714 C.3     
  20 C20            1.9384    -1.2518    -3.2835 C.3     
  21 C21           -0.2746    -4.3183    -5.2327 C.3     
  22 C22           -1.1145    -2.0040    -4.8040 C.3     
  23 C23            1.0136    -2.3069    -6.7061 C.ar    
  24 C24            0.1363    -1.3507    -7.2011 C.ar    
  25 C25           -0.0911    -1.2610    -8.5627 C.ar    
  26 C26            0.5548    -2.1239    -9.4319 C.ar    
  27 C27            1.4296    -3.0784    -8.9406 C.ar    
  28 C28            1.6651    -3.1673    -7.5803 C.ar    
  29 F29            2.0581    -3.9194    -9.7908 F       
  30 F30           -0.9444    -0.3310    -9.0447 F       
  31 C31            4.4053     3.5875     0.8827 C.3     
  32 C32            4.7203     4.3789    -0.3882 C.3     
  33 C33            6.0098     5.2023    -0.4063 C.3     
  34 C34            5.9110     3.9173    -1.2310 C.3     
  35 H35            3.6428    -1.2020    -1.1270 H       
  36 H36            4.6363     0.8601    -0.3341 H       
  37 H37            1.6926    -2.7295    -0.9442 H       
  38 H38            0.0669    -2.0776    -0.6270 H       
  39 H39            1.2246    -3.8089    -3.0286 H       
  40 H40           -0.4811    -3.4952    -2.6267 H       
  41 H41            2.4936    -0.7095    -5.2938 H       
  42 H42            0.7878    -0.3957    -4.8919 H       
  43 H43            2.1868    -0.2790    -2.8591 H       
  44 H44            2.7852    -1.9277    -3.1645 H       
  45 H45           -1.0271    -4.8042    -4.6116 H       
  46 H46           -0.6664    -4.1854    -6.2411 H       
  47 H47            0.6213    -4.9380    -5.2698 H       
  48 H48           -0.8264    -1.0015    -4.4878 H       
  49 H49           -1.4174    -1.9818    -5.8508 H       
  50 H50           -1.9466    -2.3528    -4.1923 H       
  51 H51           -0.3682    -0.6779    -6.5234 H       
  52 H52            0.3758    -2.0527   -10.4946 H       
  53 H53            2.3514    -3.9084    -7.1980 H       
  54 H54            4.4089     4.2606     1.7401 H       
  55 H55            5.1595     2.8136     1.0252 H       
  56 H56            3.8569     4.7843    -0.9158 H       
  57 H57            5.9948     6.1491    -0.9461 H       
  58 H58            6.6337     5.1801     0.4872 H       
  59 H59            6.4698     3.0498    -0.8799 H       
  60 H60            5.8310     4.0188    -2.3133 H       
@<TRIPOS>BOND
   1    1    2 1
   2    1    6 1
   3    1    8 2
   4    2    3 2
   5    2   10 1
   6    3    4 1
   7    3   14 1
   8    4    5 2
   9    4   35 1
  10    5    6 1
  11    5   36 1
  12    6    9 1
  13    7    8 1
  14    7    9 2
  15    9   31 1
  16   10   11 1
  17   10   12 1
  18   10   13 1
  19   14   15 1
  20   14   37 1
  21   14   38 1
  22   15   16 1
  23   15   20 1
  24   16   17 1
  25   16   39 1
  26   16   40 1
  27   17   18 1
  28   17   21 1
  29   17   22 1
  30   18   19 1
  31   18   23 1
  32   19   20 1
  33   19   41 1
  34   19   42 1
  35   20   43 1
  36   20   44 1
  37   21   45 1
  38   21   46 1
  39   21   47 1
  40   22   48 1
  41   22   49 1
  42   22   50 1
  43   23   24 ar
  44   23   28 ar
  45   24   25 ar
  46   24   51 1
  47   25   26 ar
  48   25   30 1
  49   26   27 ar
  50   26   52 1
  51   27   28 ar
  52   27   29 1
  53   28   53 1
  54   31   32 1
  55   31   54 1
  56   31   55 1
  57   32   33 1
  58   32   34 1
  59   32   56 1
  60   33   34 1
  61   33   57 1
  62   33   58 1
  63   34   59 1
  64   34   60 1

#	End of record

