#	Name: ASD01940488
#	Creating user name:	WinNT
#	Creation time:	15. 06. 2019 20:12

#	Modifying user name:	WinNT
#	Modification time:	15. 06. 2019 20:12

#	Program:	/corina/corina34_cracker 3.40 0067  02.08.2006

@<TRIPOS>MOLECULE
ASD01940488
  33   35    0    0    0
SMALL
NO_CHARGES


@<TRIPOS>ATOM
   1 S1             3.3496     2.9768    -2.8964 S.3     
   2 N2             4.0647     1.5459    -3.4595 N.2     
   3 C3             4.1328     0.7126    -2.4781 C.2     
   4 C4             3.6440     1.1027    -1.2206 C.ar    
   5 C5             3.1310     2.4124    -1.2371 C.ar    
   6 C6             2.5961     2.9930    -0.0894 C.ar    
   7 C7             2.5695     2.2570     1.1034 C.ar    
   8 C8             3.0824     0.9481     1.1194 C.ar    
   9 C9             3.6016     0.3861     0.0028 C.ar    
  10 C10            2.0105     2.8489     2.3273 C.2     
  11 O11            1.6542     4.0112     2.3325 O.2     
  12 O12            1.8928     2.1029     3.4441 O.3     
  13 N13            2.0957     4.2858    -0.1263 N.pl3   
  14 C14            2.9105     5.3633     0.2458 C.ar    
  15 C15            2.4503     6.6677     0.0958 C.ar    
  16 C16            3.2545     7.7298     0.4630 C.ar    
  17 C17            4.5220     7.4940     0.9817 C.ar    
  18 C18            4.9803     6.1913     1.1309 C.ar    
  19 C19            4.1744     5.1293     0.7693 C.ar    
  20 S20            5.5482     8.8478     1.4495 S.3     
  21 C21            7.0531     8.0312     2.0486 C.3     
  22 F22            1.2181     6.8958    -0.4089 F       
  23 H23            4.5585    -0.2697    -2.6208 H       
  24 H24            3.0621     0.3813     2.0385 H       
  25 H25            3.9883    -0.6214     0.0439 H       
  26 H26            1.5196     2.5358     4.2240 H       
  27 H27            1.1816     4.4441    -0.4097 H       
  28 H28            2.8982     8.7426     0.3465 H       
  29 H29            5.9654     6.0085     1.5340 H       
  30 H30            4.5298     4.1166     0.8898 H       
  31 H31            6.8048     7.3836     2.8895 H       
  32 H32            7.4868     7.4346     1.2461 H       
  33 H33            7.7719     8.7848     2.3703 H       
@<TRIPOS>BOND
   1    1    2 1
   2    1    5 1
   3    2    3 2
   4    3    4 1
   5    3   23 1
   6    4    5 ar
   7    4    9 ar
   8    5    6 ar
   9    6    7 ar
  10    6   13 1
  11    7    8 ar
  12    7   10 1
  13    8    9 ar
  14    8   24 1
  15    9   25 1
  16   10   11 2
  17   10   12 1
  18   12   26 1
  19   13   14 1
  20   13   27 1
  21   14   15 ar
  22   14   19 ar
  23   15   16 ar
  24   15   22 1
  25   16   17 ar
  26   16   28 1
  27   17   18 ar
  28   17   20 1
  29   18   19 ar
  30   18   29 1
  31   19   30 1
  32   20   21 1
  33   21   31 1
  34   21   32 1
  35   21   33 1

#	End of record

