#	Name: ASD07931893
#	Creating user name:	WinNT
#	Creation time:	15. 06. 2019 21:13

#	Modifying user name:	WinNT
#	Modification time:	15. 06. 2019 21:13

#	Program:	/corina/corina34_cracker 3.40 0067  02.08.2006

@<TRIPOS>MOLECULE
ASD07931893
  28   29    0    0    0
SMALL
NO_CHARGES


@<TRIPOS>ATOM
   1 O1            -0.0162     1.3458     0.0094 O.3     
   2 C2             0.0021    -0.0041     0.0020 C.2     
   3 C3             1.3184    -0.4138    -0.0128 C.2     
   4 C4             2.1013     0.7444    -0.0140 C.2     
   5 C5             1.2450     1.8082    -0.0001 C.2     
   6 C6            -1.1705    -0.8795     0.0089 C.2     
   7 O7            -1.0276    -2.0875     0.0015 O.2     
   8 O8            -2.4101    -0.3467     0.0236 O.3     
   9 C9             1.6400     3.2313     0.0038 C.ar    
  10 C10            0.6642     4.2301     0.0190 C.ar    
  11 C11            1.0402     5.5573     0.0224 C.ar    
  12 C12            2.3808     5.8998     0.0109 C.ar    
  13 C13            3.3530     4.9153    -0.0042 C.ar    
  14 C14            2.9912     3.5842    -0.0020 C.ar    
  15 C15            2.7839     7.3519     0.0143 C.3     
  16 F16            2.9217     7.7945     1.3343 F       
  17 F17            4.0028     7.4991    -0.6565 F       
  18 F18            1.8016     8.1101    -0.6316 F       
  19 C19           -3.5088    -1.2604     0.0296 C.3     
  20 H20            1.6758    -1.4330    -0.0216 H       
  21 H21            3.1803     0.7895    -0.0241 H       
  22 H22           -0.3825     3.9641     0.0276 H       
  23 H23            0.2866     6.3308     0.0338 H       
  24 H24            4.3975     5.1896    -0.0131 H       
  25 H25            3.7510     2.8167    -0.0093 H       
  26 H26           -4.4452    -0.7025     0.0415 H       
  27 H27           -3.4683    -1.8833    -0.8639 H       
  28 H28           -3.4511    -1.8922     0.9159 H       
@<TRIPOS>BOND
   1    1    2 1
   2    1    5 1
   3    2    3 2
   4    2    6 1
   5    3    4 1
   6    3   20 1
   7    4    5 2
   8    4   21 1
   9    5    9 1
  10    6    7 2
  11    6    8 1
  12    8   19 1
  13    9   10 ar
  14    9   14 ar
  15   10   11 ar
  16   10   22 1
  17   11   12 ar
  18   11   23 1
  19   12   13 ar
  20   12   15 1
  21   13   14 ar
  22   13   24 1
  23   14   25 1
  24   15   16 1
  25   15   17 1
  26   15   18 1
  27   19   26 1
  28   19   27 1
  29   19   28 1

#	End of record

