#	Name: ASD01200345
#	Creating user name:	WinNT
#	Creation time:	15. 06. 2019 19:09

#	Modifying user name:	WinNT
#	Modification time:	15. 06. 2019 19:09

#	Program:	/corina/corina34_cracker 3.40 0067  02.08.2006

@<TRIPOS>MOLECULE
ASD01200345
  48   51    0    0    0
SMALL
NO_CHARGES


@<TRIPOS>ATOM
   1 C1            -0.0167     1.3773     0.0096 C.ar    
   2 C2             0.0021    -0.0041     0.0020 C.ar    
   3 C3             1.2131    -0.6803    -0.0132 C.ar    
   4 C4             2.4036     0.0335    -0.0207 C.ar    
   5 C5             2.3791     1.4158    -0.0130 C.ar    
   6 C6             1.1704     2.0865     0.0021 C.ar    
   7 C7             1.1463     3.5933     0.0104 C.3     
   8 C8             1.8712     4.1081     1.2555 C.3     
   9 C9             1.8369     4.1135    -1.2239 C.2     
  10 C10            1.7396     5.6306     1.3294 C.3     
  11 C11            0.4505     7.4432     2.2832 C.3     
  12 C12            0.2820     6.0330     1.6649 C.3     
  13 C13            2.5664     6.1875     2.5067 C.3     
  14 C14            1.7468     7.3400     3.1131 C.3     
  15 C15            1.2191     4.4622    -2.3634 C.2     
  16 N16            3.1868     4.3061    -1.3473 N.pl3   
  17 C17            2.2597     4.9088    -3.2912 C.ar    
  18 C18            2.2574     5.3854    -4.6039 C.ar    
  19 C19            3.4807     4.7901    -2.5995 C.ar    
  20 N20            4.6140     5.1305    -3.1984 N.ar    
  21 C21            4.6342     5.5791    -4.4356 C.ar    
  22 C22            3.4705     5.7209    -5.1755 C.ar    
  23 Cl23           3.9216    -0.8087    -0.0391 Cl      
  24 O24            1.2339    -2.0393    -0.0202 O.3     
  25 C25           -0.0291    -2.7076    -0.0113 C.3     
  26 H26           -0.9595     1.9039     0.0169 H       
  27 H27           -0.9256    -0.5571     0.0082 H       
  28 H28            3.3049     1.9720    -0.0188 H       
  29 H29            0.1131     3.9401     0.0221 H       
  30 H30            1.4272     3.6614     2.1452 H       
  31 H31            2.9255     3.8368     1.2004 H       
  32 H32            2.0569     6.0860     0.3913 H       
  33 H33            0.5580     8.1930     1.4994 H       
  34 H34           -0.3965     7.6813     2.9266 H       
  35 H35           -0.3243     6.0778     0.7603 H       
  36 H36           -0.1523     5.3433     2.3887 H       
  37 H37            2.7249     5.4090     3.2530 H       
  38 H38            3.5251     6.5605     2.1462 H       
  39 H39            2.3077     8.2723     3.0470 H       
  40 H40            1.5075     7.1208     4.1537 H       
  41 H41            0.1577     4.4211    -2.5585 H       
  42 H42            3.8399     4.1272    -0.6528 H       
  43 H43            1.3351     5.4884    -5.1563 H       
  44 H44            5.5798     5.8451    -4.8843 H       
  45 H45            3.5111     6.0929    -6.1886 H       
  46 H46           -0.5819    -2.4278     0.8855 H       
  47 H47           -0.5992    -2.4189    -0.8943 H       
  48 H48            0.1302    -3.7859    -0.0183 H       
@<TRIPOS>BOND
   1    1    2 ar
   2    1    6 ar
   3    1   26 1
   4    2    3 ar
   5    2   27 1
   6    3    4 ar
   7    3   24 1
   8    4    5 ar
   9    4   23 1
  10    5    6 ar
  11    5   28 1
  12    6    7 1
  13    7    8 1
  14    7    9 1
  15    7   29 1
  16    8   10 1
  17    8   30 1
  18    8   31 1
  19    9   16 1
  20    9   15 2
  21   10   13 1
  22   10   12 1
  23   10   32 1
  24   11   12 1
  25   11   14 1
  26   11   33 1
  27   11   34 1
  28   12   35 1
  29   12   36 1
  30   13   14 1
  31   13   37 1
  32   13   38 1
  33   14   39 1
  34   14   40 1
  35   15   17 1
  36   15   41 1
  37   16   19 1
  38   16   42 1
  39   17   19 ar
  40   17   18 ar
  41   18   22 ar
  42   18   43 1
  43   19   20 ar
  44   20   21 ar
  45   21   22 ar
  46   21   44 1
  47   22   45 1
  48   24   25 1
  49   25   46 1
  50   25   47 1
  51   25   48 1

#	End of record

