#	Name: ASD02408180
#	Creating user name:	WinNT
#	Creation time:	15. 06. 2019 20:21

#	Modifying user name:	WinNT
#	Modification time:	15. 06. 2019 20:21

#	Program:	/corina/corina34_cracker 3.40 0067  02.08.2006

@<TRIPOS>MOLECULE
ASD02408180
  60   64    0    0    0
SMALL
NO_CHARGES


@<TRIPOS>ATOM
   1 C1            -0.4014     3.0129    -0.8570 C.ar    
   2 C2            -0.6032     1.6641    -0.6314 C.ar    
   3 C3             0.4743     0.8379    -0.3722 C.ar    
   4 C4             1.7537     1.3603    -0.3392 C.ar    
   5 C5             1.9556     2.7090    -0.5657 C.ar    
   6 C6             0.8779     3.5355    -0.8234 C.ar    
   7 C7             2.9283     0.4598    -0.0557 C.3     
   8 O8             3.4324    -0.0667    -1.2848 O.3     
   9 C9             4.5001    -0.9038    -1.2057 C.ar    
  10 C10            5.0511    -1.2120     0.0294 C.ar    
  11 C11            5.0372    -1.4560    -2.3597 C.ar    
  12 C12            6.1220    -2.3069    -2.2766 C.ar    
  13 C13            6.6729    -2.6085    -1.0445 C.ar    
  14 C14            6.1363    -2.0637     0.1072 C.ar    
  15 C15            4.4371    -1.1281    -3.7027 C.3     
  16 C16            5.0288     0.1590    -4.2165 C.2     
  17 N17            4.6227     0.6312    -5.4110 N.am    
  18 N18            5.9140     0.7821    -3.4870 N.2     
  19 C19            6.4730     1.9294    -3.8924 C.2     
  20 C20            6.0990     2.4758    -5.1313 C.2     
  21 C21            5.1313     1.7811    -5.9016 C.2     
  22 N22            7.4016     2.5652    -3.1054 N.pl3   
  23 C23            7.3970     4.0288    -2.9759 C.3     
  24 C24            8.4149     1.7944    -2.3720 C.3     
  25 C25            8.3543     2.1834    -0.8915 C.3     
  26 C26            8.4969     3.7010    -0.7603 C.3     
  27 C27            7.3480     4.3920    -1.4884 C.3     
  28 O28            8.4741     4.0679     0.6250 O.3     
  29 C29            9.7227     4.7295     0.9131 C.3     
  30 C30           10.2005     5.1996    -0.4836 C.3     
  31 O31            9.7497     4.1145    -1.3297 O.3     
  32 O32            4.7706     2.2106    -6.9838 O.2     
  33 C33            6.6736     3.7007    -5.6004 C.1     
  34 N34            7.1294     4.6725    -5.9725 N.1     
  35 H35           -1.2428     3.6576    -1.0639 H       
  36 H36           -1.6028     1.2559    -0.6572 H       
  37 H37            0.3166    -0.2158    -0.1953 H       
  38 H38            2.9551     3.1173    -0.5395 H       
  39 H39            1.0356     4.5891    -1.0008 H       
  40 H40            3.7114     1.0304     0.4435 H       
  41 H41            2.6102    -0.3606     0.5876 H       
  42 H42            4.6325    -0.7864     0.9294 H       
  43 H43            6.5402    -2.7372    -3.1745 H       
  44 H44            7.5211    -3.2740    -0.9816 H       
  45 H45            6.5682    -2.3008     1.0682 H       
  46 H46            4.6545    -1.9336    -4.4042 H       
  47 H47            3.3576    -1.0166    -3.6008 H       
  48 H48            3.9602     0.1410    -5.9225 H       
  49 H49            8.3033     4.4380    -3.4224 H       
  50 H50            6.5218     4.4375    -3.4809 H       
  51 H51            8.2113     0.7289    -2.4785 H       
  52 H52            9.4044     2.0210    -2.7691 H       
  53 H53            7.3982     1.8703    -0.4720 H       
  54 H54            9.1659     1.6939    -0.3533 H       
  55 H55            7.4454     5.4722    -1.3791 H       
  56 H56            6.3991     4.0669    -1.0619 H       
  57 H57            9.5634     5.5823     1.5729 H       
  58 H58           10.4368     4.0313     1.3497 H       
  59 H59            9.7220     6.1379    -0.7643 H       
  60 H60           11.2861     5.2927    -0.5136 H       
@<TRIPOS>BOND
   1    1    2 ar
   2    1    6 ar
   3    1   35 1
   4    2    3 ar
   5    2   36 1
   6    3    4 ar
   7    3   37 1
   8    4    5 ar
   9    4    7 1
  10    5    6 ar
  11    5   38 1
  12    6   39 1
  13    7    8 1
  14    7   40 1
  15    7   41 1
  16    8    9 1
  17    9   10 ar
  18    9   11 ar
  19   10   14 ar
  20   10   42 1
  21   11   12 ar
  22   11   15 1
  23   12   13 ar
  24   12   43 1
  25   13   14 ar
  26   13   44 1
  27   14   45 1
  28   15   16 1
  29   15   46 1
  30   15   47 1
  31   16   17 1
  32   16   18 2
  33   17   21 am
  34   17   48 1
  35   18   19 1
  36   19   20 2
  37   19   22 1
  38   20   21 1
  39   20   33 1
  40   21   32 2
  41   22   23 1
  42   22   24 1
  43   23   27 1
  44   23   49 1
  45   23   50 1
  46   24   25 1
  47   24   51 1
  48   24   52 1
  49   25   26 1
  50   25   53 1
  51   25   54 1
  52   26   27 1
  53   26   28 1
  54   26   31 1
  55   27   55 1
  56   27   56 1
  57   28   29 1
  58   29   30 1
  59   29   57 1
  60   29   58 1
  61   30   31 1
  62   30   59 1
  63   30   60 1
  64   33   34 3

#	End of record

