#	Name: ASD02500811
#	Creating user name:	WinNT
#	Creation time:	15. 06. 2019 20:23

#	Modifying user name:	WinNT
#	Modification time:	15. 06. 2019 20:23

#	Program:	/corina/corina34_cracker 3.40 0067  02.08.2006

@<TRIPOS>MOLECULE
ASD02500811
  38   41    0    0    0
SMALL
NO_CHARGES


@<TRIPOS>ATOM
   1 C1            -0.0169     1.3948     0.0097 C.2     
   2 C2             0.0021    -0.0041     0.0020 C.2     
   3 C3            -1.2255    -0.6947     0.0104 C.2     
   4 N4            -2.3818    -0.0050     0.0256 N.am    
   5 N5            -2.4038     1.3917     0.0333 N.2     
   6 C6            -1.3009     2.0876     0.0310 C.2     
   7 C7             1.3320     1.8348    -0.0008 C.2     
   8 C8             2.1401     0.7201    -0.0145 C.2     
   9 N9             1.3170    -0.4078    -0.0127 N.pl3   
  10 S10            2.3251     3.2888    -0.0030 S.3     
  11 C11            3.7975     2.3326    -0.0223 C.2     
  12 C12            3.5044     1.0315    -0.0258 C.2     
  13 O13           -1.2410    -1.9155     0.0036 O.2     
  14 C14           -3.6500    -0.7385     0.0337 C.3     
  15 C15           -4.0710    -0.9981     1.4572 C.ar    
  16 C16           -4.6850     0.0024     2.1911 C.ar    
  17 C17           -5.0713    -0.2376     3.4991 C.ar    
  18 C18           -4.8437    -1.4751     4.0702 C.ar    
  19 C19           -4.2304    -2.4736     3.3362 C.ar    
  20 C20           -3.8495    -2.2370     2.0287 C.ar    
  21 F21           -4.9066     1.2120     1.6319 F       
  22 C22            1.7795    -1.7978    -0.0239 C.3     
  23 O23            5.0544     2.8444    -0.0323 O.3     
  24 C24            5.1752     4.2683    -0.0259 C.3     
  25 H25           -1.3377     3.1669     0.0374 H       
  26 H26            4.2691     0.2689    -0.0371 H       
  27 H27           -4.4150    -0.1471    -0.4694 H       
  28 H28           -3.5239    -1.6879    -0.4868 H       
  29 H29           -5.5500     0.5422     4.0727 H       
  30 H30           -5.1446    -1.6624     5.0904 H       
  31 H31           -4.0526    -3.4404     3.7835 H       
  32 H32           -3.3706    -3.0176     1.4563 H       
  33 H33            1.9040    -2.1476     1.0010 H       
  34 H34            1.0450    -2.4211    -0.5338 H       
  35 H35            2.7338    -1.8591    -0.5470 H       
  36 H36            6.2298     4.5435    -0.0351 H       
  37 H37            4.6850     4.6785    -0.9088 H       
  38 H38            4.7029     4.6690     0.8710 H       
@<TRIPOS>BOND
   1    1    2 2
   2    1    7 1
   3    1    6 1
   4    2    3 1
   5    2    9 1
   6    3    4 am
   7    3   13 2
   8    4    5 1
   9    4   14 1
  10    5    6 2
  11    6   25 1
  12    7    8 2
  13    7   10 1
  14    8    9 1
  15    8   12 1
  16    9   22 1
  17   10   11 1
  18   11   12 2
  19   11   23 1
  20   12   26 1
  21   14   15 1
  22   14   27 1
  23   14   28 1
  24   15   16 ar
  25   15   20 ar
  26   16   17 ar
  27   16   21 1
  28   17   18 ar
  29   17   29 1
  30   18   19 ar
  31   18   30 1
  32   19   20 ar
  33   19   31 1
  34   20   32 1
  35   22   33 1
  36   22   34 1
  37   22   35 1
  38   23   24 1
  39   24   36 1
  40   24   37 1
  41   24   38 1

#	End of record

