#	Name: ASD01915475
#	Creating user name:	WinNT
#	Creation time:	15. 06. 2019 20:05

#	Modifying user name:	WinNT
#	Modification time:	15. 06. 2019 20:05

#	Program:	/corina/corina34_cracker 3.40 0067  02.08.2006

@<TRIPOS>MOLECULE
ASD01915475
  33   35    0    0    0
SMALL
NO_CHARGES


@<TRIPOS>ATOM
   1 C1            -0.0167     1.3781     0.0096 C.ar    
   2 C2             0.0021    -0.0041     0.0020 C.ar    
   3 C3             1.2082    -0.6791    -0.0127 C.ar    
   4 C4             2.3965     0.0276    -0.0198 C.ar    
   5 C5             2.3790     1.4094    -0.0126 C.ar    
   6 C6             1.1719     2.0858     0.0021 C.ar    
   7 C7             3.7110    -0.7091    -0.0348 C.3     
   8 O8             4.1147    -0.9356    -1.3867 O.3     
   9 C9             5.2850    -1.5915    -1.5776 C.ar    
  10 C10            5.7256    -1.8387    -2.8739 C.ar    
  11 N11            5.9912    -1.9808    -0.5265 N.ar    
  12 C12            7.1331    -2.6205    -0.6604 C.ar    
  13 C13            7.6345    -2.9095    -1.9321 C.ar    
  14 C14            6.9193    -2.5085    -3.0637 C.ar    
  15 C15            7.9216    -3.0519     0.5492 C.3     
  16 C16            8.6312    -4.3731     0.2635 C.3     
  17 N17            9.3913    -4.3023    -0.9816 N.am    
  18 C18            8.9160    -3.6308    -2.0502 C.2     
  19 O19            9.5351    -3.6200    -3.0965 O.2     
  20 Cl20           1.1492     3.8216     0.0105 Cl      
  21 H21           -0.9591     1.9055     0.0170 H       
  22 H22           -0.9258    -0.5566     0.0079 H       
  23 H23            1.2223    -1.7590    -0.0182 H       
  24 H24            3.3073     1.9614    -0.0178 H       
  25 H25            4.4676    -0.1128     0.4753 H       
  26 H26            3.5974    -1.6655     0.4756 H       
  27 H27            5.1417    -1.5115    -3.7214 H       
  28 H28            7.2866    -2.7195    -4.0572 H       
  29 H29            8.6613    -2.2884     0.7902 H       
  30 H30            7.2461    -3.1793     1.3951 H       
  31 H31            9.3109    -4.5991     1.0851 H       
  32 H32            7.8895    -5.1679     0.1850 H       
  33 H33           10.2523    -4.7452    -1.0408 H       
@<TRIPOS>BOND
   1    1    2 ar
   2    1    6 ar
   3    1   21 1
   4    2    3 ar
   5    2   22 1
   6    3    4 ar
   7    3   23 1
   8    4    5 ar
   9    4    7 1
  10    5    6 ar
  11    5   24 1
  12    6   20 1
  13    7    8 1
  14    7   25 1
  15    7   26 1
  16    8    9 1
  17    9   10 ar
  18    9   11 ar
  19   10   14 ar
  20   10   27 1
  21   11   12 ar
  22   12   13 ar
  23   12   15 1
  24   13   14 ar
  25   13   18 1
  26   14   28 1
  27   15   16 1
  28   15   29 1
  29   15   30 1
  30   16   17 1
  31   16   31 1
  32   16   32 1
  33   17   18 am
  34   17   33 1
  35   18   19 2

#	End of record

