#	Name: ASD02198464
#	Creating user name:	WinNT
#	Creation time:	15. 06. 2019 20:19

#	Modifying user name:	WinNT
#	Modification time:	15. 06. 2019 20:19

#	Program:	/corina/corina34_cracker 3.40 0067  02.08.2006

@<TRIPOS>MOLECULE
ASD02198464
  44   47    0    0    0
SMALL
NO_CHARGES


@<TRIPOS>ATOM
   1 C1            -0.2827     1.6237    -0.2728 C.2     
   2 C2            -0.4289     0.2760    -0.2184 C.2     
   3 N3             0.6467    -0.5333    -0.0878 N.pl3   
   4 N4             1.8498    -0.0981    -0.0085 N.2     
   5 C5             2.1325     1.1860    -0.0487 C.2     
   6 C6             1.0289     2.1500    -0.1890 C.2     
   7 C7             0.4356    -1.9151    -0.0363 C.ar    
   8 C8            -1.0616    -3.7848     0.0795 C.ar    
   9 C9             0.0181    -4.6485     0.0657 C.ar    
  10 C10            1.3066    -4.1490     0.0067 C.ar    
  11 C11            1.5185    -2.7856    -0.0442 C.ar    
  12 C12            3.5310     1.6518     0.0459 C.2     
  13 N13            4.1827     2.4521    -0.8499 N.pl3   
  14 N14            5.4861     2.6486    -0.3769 N.2     
  15 C15            5.6263     2.0011     0.7523 C.2     
  16 C16            4.4222     1.3662     1.0569 C.2     
  17 C17            3.6438     2.9805    -2.0299 C.ar    
  18 C18            2.8461     2.1891    -2.8458 C.ar    
  19 O19            1.2360     3.3535    -0.2315 O.2     
  20 C20           -0.8568    -2.4199     0.0287 C.ar    
  21 C21            3.9015     4.2985    -2.3833 C.ar    
  22 C22            3.3687     4.8165    -3.5475 C.ar    
  23 C23            2.5794     4.0242    -4.3608 C.ar    
  24 C24            2.3162     2.7130    -4.0087 C.ar    
  25 C25           -2.4637    -4.3336     0.1438 C.3     
  26 F26           -2.4161    -5.7313     0.1808 F       
  27 F27           -3.0983    -3.8579     1.2962 F       
  28 F28           -3.1782    -3.9211    -0.9861 F       
  29 C29            1.9993     4.5928    -5.6301 C.3     
  30 H30           -1.1385     2.2735    -0.3811 H       
  31 H31           -1.4168    -0.1560    -0.2798 H       
  32 H32           -0.1450    -5.7155     0.1013 H       
  33 H33            2.1477    -4.8264    -0.0036 H       
  34 H34            2.5248    -2.3963    -0.0906 H       
  35 H35            6.5247     1.9669     1.3507 H       
  36 H36            4.2259     0.7554     1.9257 H       
  37 H37            2.6405     1.1650    -2.5715 H       
  38 H38           -1.7005    -1.7458     0.0399 H       
  39 H39            4.5176     4.9179    -1.7484 H       
  40 H40            3.5685     5.8415    -3.8228 H       
  41 H41            1.6997     2.0966    -4.6461 H       
  42 H42            2.6948     4.4282    -6.4531 H       
  43 H43            1.0528     4.0989    -5.8501 H       
  44 H44            1.8306     5.6624    -5.5053 H       
@<TRIPOS>BOND
   1    1    2 2
   2    1    6 1
   3    1   30 1
   4    2    3 1
   5    2   31 1
   6    3    4 1
   7    3    7 1
   8    4    5 2
   9    5    6 1
  10    5   12 1
  11    6   19 2
  12    7   20 ar
  13    7   11 ar
  14    8    9 ar
  15    8   25 1
  16    8   20 ar
  17    9   10 ar
  18    9   32 1
  19   10   11 ar
  20   10   33 1
  21   11   34 1
  22   12   13 1
  23   12   16 2
  24   13   14 1
  25   13   17 1
  26   14   15 2
  27   15   16 1
  28   15   35 1
  29   16   36 1
  30   17   21 ar
  31   17   18 ar
  32   18   24 ar
  33   18   37 1
  34   20   38 1
  35   21   22 ar
  36   21   39 1
  37   22   23 ar
  38   22   40 1
  39   23   24 ar
  40   23   29 1
  41   24   41 1
  42   25   26 1
  43   25   27 1
  44   25   28 1
  45   29   42 1
  46   29   43 1
  47   29   44 1

#	End of record

