#	Name: ASD03330428
#	Creating user name:	WinNT
#	Creation time:	15. 06. 2019 20:37

#	Modifying user name:	WinNT
#	Modification time:	15. 06. 2019 20:37

#	Program:	/corina/corina34_cracker 3.40 0067  02.08.2006

@<TRIPOS>MOLECULE
ASD03330428
  52   55    0    0    0
SMALL
NO_CHARGES


@<TRIPOS>ATOM
   1 C1            -0.3064     1.8605    -0.6112 C.3     
   2 N2            -0.4067     0.3975    -0.5151 N.3     
   3 C3             0.2022    -0.2568    -1.6873 C.3     
   4 C4             1.5752     0.3311    -1.8869 C.2     
   5 N5             1.9941     1.4899    -1.2997 N.pl3   
   6 C6             1.1512     2.2964    -0.4128 C.3     
   7 C7             2.6058    -0.1339    -2.6355 C.2     
   8 N8             3.6364     0.7325    -2.4994 N.2     
   9 C9             3.2747     1.7093    -1.6974 C.2     
  10 C10            4.1197     2.8544    -1.2955 C.ar    
  11 C11            2.6039    -1.3613    -3.4502 C.2     
  12 O12            1.6105    -2.0620    -3.4920 O.2     
  13 C13            3.7358    -2.9214    -4.8444 C.ar    
  14 N14            3.7028    -1.7079    -4.1492 N.am    
  15 C15           -1.8033    -0.0242    -0.3431 C.3     
  16 C16            4.1959     3.2323     0.0456 C.ar    
  17 C17            4.9854     4.3011     0.4148 C.ar    
  18 C18            5.7028     5.0003    -0.5419 C.ar    
  19 C19            5.6327     4.6321    -1.8740 C.ar    
  20 C20            4.8496     3.5591    -2.2563 C.ar    
  21 F21            4.7813     3.1997    -3.5569 F       
  22 Cl22           6.6935     6.3447    -0.0678 Cl      
  23 C23            2.5866    -3.4038    -5.4519 C.ar    
  24 C24            4.9216    -3.6406    -4.9309 C.ar    
  25 C25            4.9595    -4.8402    -5.6171 C.ar    
  26 C26            3.8199    -5.3316    -6.2203 C.ar    
  27 C27            2.6247    -4.6140    -6.1436 C.ar    
  28 C28            1.4019    -5.1386    -6.7887 C.2     
  29 O29            0.3624    -4.5122    -6.7207 O.2     
  30 N30            1.4400    -6.3112    -7.4520 N.am    
  31 C31            0.2285    -6.8309    -8.0911 C.3     
  32 H32           -0.6505     2.1835    -1.5937 H       
  33 H33           -0.9291     2.3176     0.1579 H       
  34 H34            0.2827    -1.3293    -1.5103 H       
  35 H35           -0.4093    -0.0733    -2.5708 H       
  36 H36            1.2570     3.3517    -0.6640 H       
  37 H37            1.4461     2.1331     0.6238 H       
  38 H38            4.4709    -1.1159    -4.1703 H       
  39 H39           -2.4055     0.3708    -1.1613 H       
  40 H40           -1.8570    -1.1129    -0.3452 H       
  41 H41           -2.1838     0.3565     0.6047 H       
  42 H42            3.6373     2.6889     0.7932 H       
  43 H43            5.0443     4.5939     1.4527 H       
  44 H44            6.1943     5.1810    -2.6154 H       
  45 H45            1.6649    -2.8443    -5.3893 H       
  46 H46            5.8168    -3.2611    -4.4608 H       
  47 H47            5.8842    -5.3944    -5.6816 H       
  48 H48            3.8537    -6.2689    -6.7557 H       
  49 H49            2.2695    -6.8110    -7.5063 H       
  50 H50           -0.5447    -6.9797    -7.3374 H       
  51 H51           -0.1234    -6.1178    -8.8367 H       
  52 H52            0.4522    -7.7817    -8.5748 H       
@<TRIPOS>BOND
   1    1    2 1
   2    1    6 1
   3    1   32 1
   4    1   33 1
   5    2    3 1
   6    2   15 1
   7    3    4 1
   8    3   34 1
   9    3   35 1
  10    4    5 1
  11    4    7 2
  12    5    6 1
  13    5    9 1
  14    6   36 1
  15    6   37 1
  16    7    8 1
  17    7   11 1
  18    8    9 2
  19    9   10 1
  20   10   16 ar
  21   10   20 ar
  22   11   12 2
  23   11   14 am
  24   13   14 1
  25   13   23 ar
  26   13   24 ar
  27   14   38 1
  28   15   39 1
  29   15   40 1
  30   15   41 1
  31   16   17 ar
  32   16   42 1
  33   17   18 ar
  34   17   43 1
  35   18   19 ar
  36   18   22 1
  37   19   20 ar
  38   19   44 1
  39   20   21 1
  40   23   27 ar
  41   23   45 1
  42   24   25 ar
  43   24   46 1
  44   25   26 ar
  45   25   47 1
  46   26   27 ar
  47   26   48 1
  48   27   28 1
  49   28   29 2
  50   28   30 am
  51   30   31 1
  52   30   49 1
  53   31   50 1
  54   31   51 1
  55   31   52 1

#	End of record

