#	Name: ASD01880275
#	Creating user name:	WinNT
#	Creation time:	15. 06. 2019 19:40

#	Modifying user name:	WinNT
#	Modification time:	15. 06. 2019 19:40

#	Program:	/corina/corina34_cracker 3.40 0067  02.08.2006

@<TRIPOS>MOLECULE
ASD01880275
  45   47    0    0    0
SMALL
NO_CHARGES


@<TRIPOS>ATOM
   1 C1            -0.0184     1.5028     0.0103 C.3     
   2 C2             0.0021    -0.0041     0.0020 C.2     
   3 C3            -0.0797    -0.6889     1.1666 C.2     
   4 N4            -0.0626    -2.0464     1.1751 N.am    
   5 C5             0.0357    -2.7410     0.0256 C.2     
   6 C6             0.1220    -2.0615    -1.2015 C.2     
   7 C7             0.1000    -0.6977    -1.2124 C.2     
   8 O8             0.0503    -3.9613     0.0496 O.2     
   9 C9            -0.1515    -2.7638     2.4493 C.3     
  10 C10           -1.5985    -3.0284     2.7769 C.ar    
  11 C11           -2.2027    -4.1932     2.3436 C.ar    
  12 C12           -3.5319    -4.4367     2.6448 C.ar    
  13 C13           -4.2548    -3.5118     3.3806 C.ar    
  14 C14           -3.6474    -2.3467     3.8131 C.ar    
  15 C15           -2.3189    -2.1081     3.5157 C.ar    
  16 Cl16          -5.9217    -3.8146     3.7591 Cl      
  17 F17           -4.1236    -5.5750     2.2212 F       
  18 C18            1.4170     2.0324    -0.0006 C.3     
  19 C19            1.3966     3.5392     0.0077 C.ar    
  20 C20            1.3987     4.2227     1.2080 C.ar    
  21 C21            1.3803     5.6101     1.2149 C.ar    
  22 C22            1.3599     6.3071     0.0158 C.ar    
  23 C23            1.3579     5.6187    -1.1821 C.ar    
  24 C24            1.3816     4.2365    -1.1864 C.ar    
  25 O25            1.3818     6.2849     2.3945 O.3     
  26 C26            1.3623     7.7121     2.3255 C.3     
  27 H27           -0.5455     1.8639    -0.8728 H       
  28 H28           -0.5286     1.8543     0.9071 H       
  29 H29           -0.1591    -0.1498     2.0990 H       
  30 H30            0.2013    -2.6133    -2.1264 H       
  31 H31            0.1652    -0.1580    -2.1457 H       
  32 H32            0.3824    -3.7109     2.3711 H       
  33 H33            0.2951    -2.1591     3.2386 H       
  34 H34           -1.6383    -4.9133     1.7697 H       
  35 H35           -4.2104    -1.6251     4.3865 H       
  36 H36           -1.8453    -1.1984     3.8541 H       
  37 H37            1.9442     1.6713     0.8825 H       
  38 H38            1.9272     1.6808    -0.8974 H       
  39 H39            1.4142     3.6778     2.1403 H       
  40 H40            1.3452     7.3870     0.0186 H       
  41 H41            1.3420     6.1610    -2.1160 H       
  42 H42            1.3799     3.7002    -2.1238 H       
  43 H43            0.4632     8.0383     1.8027 H       
  44 H44            1.3658     8.1248     3.3344 H       
  45 H45            2.2429     8.0620     1.7868 H       
@<TRIPOS>BOND
   1    1    2 1
   2    1   18 1
   3    1   27 1
   4    1   28 1
   5    2    3 2
   6    2    7 1
   7    3    4 1
   8    3   29 1
   9    4    5 am
  10    4    9 1
  11    5    6 1
  12    5    8 2
  13    6    7 2
  14    6   30 1
  15    7   31 1
  16    9   10 1
  17    9   32 1
  18    9   33 1
  19   10   11 ar
  20   10   15 ar
  21   11   12 ar
  22   11   34 1
  23   12   13 ar
  24   12   17 1
  25   13   14 ar
  26   13   16 1
  27   14   15 ar
  28   14   35 1
  29   15   36 1
  30   18   19 1
  31   18   37 1
  32   18   38 1
  33   19   20 ar
  34   19   24 ar
  35   20   21 ar
  36   20   39 1
  37   21   22 ar
  38   21   25 1
  39   22   23 ar
  40   22   40 1
  41   23   24 ar
  42   23   41 1
  43   24   42 1
  44   25   26 1
  45   26   43 1
  46   26   44 1
  47   26   45 1

#	End of record

