#	Name: ASD04370013
#	Creating user name:	WinNT
#	Creation time:	15. 06. 2019 20:48

#	Modifying user name:	WinNT
#	Modification time:	15. 06. 2019 20:48

#	Program:	/corina/corina34_cracker 3.40 0067  02.08.2006

@<TRIPOS>MOLECULE
ASD04370013
  70   71    0    0    0
SMALL
NO_CHARGES


@<TRIPOS>ATOM
   1 C1             3.2665    -0.4331    -0.7076 C.2     
   2 C2             1.9337     0.2213    -0.9655 C.3     
   3 C3             0.9276    -0.2366     0.0924 C.3     
   4 C4            -0.4556     0.3252    -0.2424 C.3     
   5 O5             3.4224    -1.1302     0.2804 O.co2   
   6 O6             4.1875    -0.2694    -1.4897 O.co2   
   7 N7            -1.4387    -0.1875     0.7212 N.4     
   8 C8            -1.1266     0.3285     2.0607 C.3     
   9 C9            -2.7843     0.2517     0.3285 C.3     
  10 C10           -1.3882    -1.6556     0.7380 C.3     
  11 N11            1.3472     0.2508     1.4087 N.am    
  12 C12            1.5401     1.5696     1.6089 C.2     
  13 C13            2.0815     2.0603     2.9269 C.3     
  14 C14            2.2040     3.5850     2.8920 C.3     
  15 C15            2.7536     4.0833     4.2301 C.3     
  16 C16            2.8761     5.6080     4.1952 C.3     
  17 C17            3.4257     6.1062     5.5333 C.3     
  18 C18            3.5482     7.6309     5.4984 C.3     
  19 C19            4.0979     8.1292     6.8365 C.3     
  20 O20            1.2780     2.3614     0.7284 O.2     
  21 O21            4.2122     9.5532     6.8039 O.3     
  22 C22            4.7192    10.1234     8.0121 C.3     
  23 C23            4.7974    11.6213     7.8666 C.ar    
  24 C24            4.4117    12.2169     6.7049 C.ar    
  25 C25            4.4768    13.6003     6.5518 C.ar    
  26 C26            4.9278    14.3965     7.5597 C.ar    
  27 C27            5.3344    13.8179     8.7737 C.ar    
  28 C28            5.8061    14.6072     9.8367 C.ar    
  29 C29            6.1916    14.0116    10.9981 C.ar    
  30 C30            6.1267    12.6278    11.1510 C.ar    
  31 C31            5.6759    11.8317    10.1435 C.ar    
  32 C32            5.2635    12.4109     8.9312 C.ar    
  33 H33            2.0452     1.3045    -0.9162 H       
  34 H34            1.5751    -0.0624    -1.9549 H       
  35 H35            0.8841    -1.3256     0.1051 H       
  36 H36           -0.4283     1.4136    -0.1892 H       
  37 H37           -0.7388     0.0176    -1.2490 H       
  38 H38           -0.9681     1.4056     2.0073 H       
  39 H39           -1.9568     0.1163     2.7343 H       
  40 H40           -0.2232    -0.1536     2.4344 H       
  41 H41           -3.0159    -0.1312    -0.6654 H       
  42 H42           -3.5138    -0.1288     1.0435 H       
  43 H43           -2.8218     1.3410     0.3161 H       
  44 H44           -0.3897    -1.9815     1.0293 H       
  45 H45           -2.1177    -2.0361     1.4530 H       
  46 H46           -1.6198    -2.0385    -0.2560 H       
  47 H47            1.4862    -0.3756     2.1361 H       
  48 H48            1.4040     1.7685     3.7293 H       
  49 H49            3.0634     1.6209     3.1025 H       
  50 H50            2.8815     3.8769     2.0895 H       
  51 H51            1.2220     4.0245     2.7163 H       
  52 H52            2.0761     3.7915     5.0325 H       
  53 H53            3.7356     3.6439     4.4058 H       
  54 H54            3.5536     5.8998     3.3927 H       
  55 H55            1.8941     6.0474     4.0195 H       
  56 H56            2.7482     5.8144     6.3357 H       
  57 H57            4.4077     5.6668     5.7090 H       
  58 H58            4.2257     7.9228     4.6960 H       
  59 H59            2.5662     8.0704     5.3227 H       
  60 H60            3.4203     7.8373     7.6389 H       
  61 H61            5.0798     7.6898     7.0122 H       
  62 H62            4.0546     9.8729     8.8390 H       
  63 H63            5.7140     9.7254     8.2122 H       
  64 H64            4.0500    11.6080     5.8895 H       
  65 H65            4.1652    14.0475     5.6195 H       
  66 H66            4.9732    15.4673     7.4266 H       
  67 H67            5.8626    15.6806     9.7323 H       
  68 H68            6.5537    14.6205    11.8133 H       
  69 H69            6.4392    12.1805    12.0831 H       
  70 H70            5.6319    10.7608    10.2762 H       
@<TRIPOS>BOND
   1    1    2 1
   2    1    5 ar
   3    1    6 ar
   4    2    3 1
   5    2   33 1
   6    2   34 1
   7    3    4 1
   8    3   11 1
   9    3   35 1
  10    4    7 1
  11    4   36 1
  12    4   37 1
  13    7    8 1
  14    7    9 1
  15    7   10 1
  16    8   38 1
  17    8   39 1
  18    8   40 1
  19    9   41 1
  20    9   42 1
  21    9   43 1
  22   10   44 1
  23   10   45 1
  24   10   46 1
  25   11   12 am
  26   11   47 1
  27   12   13 1
  28   12   20 2
  29   13   14 1
  30   13   48 1
  31   13   49 1
  32   14   15 1
  33   14   50 1
  34   14   51 1
  35   15   16 1
  36   15   52 1
  37   15   53 1
  38   16   17 1
  39   16   54 1
  40   16   55 1
  41   17   18 1
  42   17   56 1
  43   17   57 1
  44   18   19 1
  45   18   58 1
  46   18   59 1
  47   19   21 1
  48   19   60 1
  49   19   61 1
  50   21   22 1
  51   22   23 1
  52   22   62 1
  53   22   63 1
  54   23   24 ar
  55   23   32 ar
  56   24   25 ar
  57   24   64 1
  58   25   26 ar
  59   25   65 1
  60   26   27 ar
  61   26   66 1
  62   27   28 ar
  63   27   32 ar
  64   28   29 ar
  65   28   67 1
  66   29   30 ar
  67   29   68 1
  68   30   31 ar
  69   30   69 1
  70   31   32 ar
  71   31   70 1

#	End of record

