#	Name: ASD03090554
#	Creating user name:	WinNT
#	Creation time:	15. 06. 2019 20:29

#	Modifying user name:	WinNT
#	Modification time:	15. 06. 2019 20:29

#	Program:	/corina/corina34_cracker 3.40 0067  02.08.2006

@<TRIPOS>MOLECULE
ASD03090554
  32   34    0    0    0
SMALL
NO_CHARGES


@<TRIPOS>ATOM
   1 C1            -0.0187     1.5020     0.0192 C.2     
   2 C2             0.0008    -0.0048     0.0174 C.3     
   3 O3             1.0237     2.1221     0.0154 O.2     
   4 N4            -1.1946     2.1607     0.0195 N.am    
   5 N5             5.3293    -1.8139     0.2655 N.pl3   
   6 C6             5.4949    -1.8695     1.6226 C.2     
   7 C7             4.3652    -1.4850     2.2376 C.2     
   8 C8             3.3971    -1.1564     1.1885 C.ar    
   9 C9             2.0749    -0.7076     1.1940 C.ar    
  10 C10            1.4280    -0.4887     0.0107 C.ar    
  11 C11            2.0748    -0.7088    -1.1979 C.ar    
  12 C12            3.3788    -1.1519    -1.2264 C.ar    
  13 C13            4.0568    -1.3814    -0.0334 C.ar    
  14 C14           -2.1792     4.3022    -0.5319 C.ar    
  15 C15           -1.2153     3.5560     0.1328 C.ar    
  16 C16           -0.2697     4.2152     0.9143 C.ar    
  17 C17           -0.3309     5.5965     0.9961 C.ar    
  18 C18           -1.3215     6.2711     0.3044 C.ar    
  19 N19           -2.2028     5.6161    -0.4277 N.ar    
  20 Cl20          -1.4065     8.0023     0.4014 Cl      
  21 H21           -0.5044    -0.3758     0.9091 H       
  22 H22           -0.5121    -0.3738    -0.8708 H       
  23 H23           -2.0265     1.6681    -0.0589 H       
  24 H24            6.0085    -2.0415    -0.3885 H       
  25 H25            6.4001    -2.1774     2.1247 H       
  26 H26            4.2013    -1.4287     3.3036 H       
  27 H27            1.5651    -0.5351     2.1303 H       
  28 H28            1.5502    -0.5312    -2.1251 H       
  29 H29            3.8731    -1.3205    -2.1717 H       
  30 H30           -2.9145     3.8013    -1.1442 H       
  31 H31            0.4924     3.6629     1.4438 H       
  32 H32            0.3860     6.1406     1.5931 H       
@<TRIPOS>BOND
   1    1    2 1
   2    1    3 2
   3    1    4 am
   4    2   10 1
   5    2   21 1
   6    2   22 1
   7    4   15 1
   8    4   23 1
   9    5    6 1
  10    5   13 1
  11    5   24 1
  12    6    7 2
  13    6   25 1
  14    7    8 1
  15    7   26 1
  16    8    9 ar
  17    8   13 ar
  18    9   10 ar
  19    9   27 1
  20   10   11 ar
  21   11   12 ar
  22   11   28 1
  23   12   13 ar
  24   12   29 1
  25   14   15 ar
  26   14   19 ar
  27   14   30 1
  28   15   16 ar
  29   16   17 ar
  30   16   31 1
  31   17   18 ar
  32   17   32 1
  33   18   19 ar
  34   18   20 1

#	End of record

