#	Name: ASD03082050
#	Creating user name:	WinNT
#	Creation time:	15. 06. 2019 20:27

#	Modifying user name:	WinNT
#	Modification time:	15. 06. 2019 20:27

#	Program:	/corina/corina34_cracker 3.40 0067  02.08.2006

@<TRIPOS>MOLECULE
ASD03082050
  62   66    0    0    0
SMALL
NO_CHARGES


@<TRIPOS>ATOM
   1 C1            -0.0180     1.4728     0.0101 C.3     
   2 N2             0.0021    -0.0041     0.0020 N.3     
   3 C3             0.9834    -0.5105    -0.9651 C.3     
   4 C4             0.6833     0.0283    -2.3659 C.3     
   5 C5             0.6291     1.5670    -2.2992 C.3     
   6 C6            -0.5649     1.9190    -1.3714 C.3     
   7 C7             1.8641     2.0291    -1.4919 C.3     
   8 C8             1.4485     1.9598    -0.0012 C.3     
   9 O9             2.0846     3.4308    -1.7481 O.3     
  10 O10            1.4808     3.3284     0.4533 O.3     
  11 C11            2.3840     3.9959    -0.4536 C.3     
  12 C12            3.8364     3.7074    -0.0687 C.3     
  13 C13            2.1207     5.5031    -0.4557 C.3     
  14 C14            0.2658    -0.5344     1.3463 C.3     
  15 C15            0.0340    -2.0467     1.3525 C.3     
  16 O16            1.7323    -0.3833    -3.2816 O.3     
  17 C17            1.5606    -1.5570    -3.9207 C.2     
  18 C18            2.5849    -2.0387    -4.8656 C.ar    
  19 O19            0.5617    -2.2185    -3.7184 O.2     
  20 C20            3.7349    -1.2816    -5.1012 C.ar    
  21 C21            4.6889    -1.7378    -5.9854 C.ar    
  22 C22            4.5133    -2.9444    -6.6424 C.ar    
  23 C23            3.3811    -3.7033    -6.4195 C.ar    
  24 C24            2.4131    -3.2629    -5.5289 C.ar    
  25 N25            1.2677    -4.0289    -5.3023 N.am    
  26 C26            1.1991    -4.9646    -4.3474 C.2     
  27 C27           -0.1731    -5.6019    -4.3726 C.3     
  28 C28           -0.8932    -4.8644    -5.5198 C.3     
  29 C29            0.1460    -3.8840    -6.0186 C.2     
  30 O30            2.0945    -5.2555    -3.5838 O.2     
  31 O31           -0.0102    -3.0971    -6.9273 O.2     
  32 C32           -0.0667    -7.0975    -4.6769 C.3     
  33 H33           -0.5864     1.8770     0.8477 H       
  34 H34            1.9818    -0.1934    -0.6640 H       
  35 H35            0.9424    -1.5996    -0.9823 H       
  36 H36           -0.2770    -0.3572    -2.7083 H       
  37 H37            0.5534     2.0301    -3.2831 H       
  38 H38           -1.4535     1.3494    -1.6434 H       
  39 H39           -0.7689     2.9897    -1.3846 H       
  40 H40            2.7460     1.4289    -1.7156 H       
  41 H41            2.1010     1.3056     0.5770 H       
  42 H42            4.5031     4.1469    -0.8106 H       
  43 H43            4.0458     4.1402     0.9096 H       
  44 H44            3.9950     2.6297    -0.0307 H       
  45 H45            1.0724     5.6885    -0.6900 H       
  46 H46            2.3513     5.9136     0.5274 H       
  47 H47            2.7507     5.9810    -1.2059 H       
  48 H48            1.2987    -0.3240     1.6238 H       
  49 H49           -0.4063    -0.0609     2.0620 H       
  50 H50           -0.9989    -2.2572     1.0751 H       
  51 H51            0.7061    -2.5202     0.6368 H       
  52 H52            0.2297    -2.4402     2.3500 H       
  53 H53            3.8761    -0.3399    -4.5916 H       
  54 H54            5.5775    -1.1514    -6.1671 H       
  55 H55            5.2662    -3.2938    -7.3334 H       
  56 H56            3.2512    -4.6428    -6.9362 H       
  57 H57           -0.6898    -5.4376    -3.4270 H       
  58 H58           -1.1756    -5.5630    -6.3074 H       
  59 H59           -1.7681    -4.3332    -5.1450 H       
  60 H60            0.5123    -7.5873    -3.8940 H       
  61 H61           -1.0654    -7.5323    -4.7162 H       
  62 H62            0.4289    -7.2385    -5.6375 H       
@<TRIPOS>BOND
   1    1    2 1
   2    1    8 1
   3    1    6 1
   4    1   33 1
   5    2    3 1
   6    2   14 1
   7    3    4 1
   8    3   34 1
   9    3   35 1
  10    4    5 1
  11    4   16 1
  12    4   36 1
  13    5    6 1
  14    5    7 1
  15    5   37 1
  16    6   38 1
  17    6   39 1
  18    7    9 1
  19    7    8 1
  20    7   40 1
  21    8   10 1
  22    8   41 1
  23    9   11 1
  24   10   11 1
  25   11   12 1
  26   11   13 1
  27   12   42 1
  28   12   43 1
  29   12   44 1
  30   13   45 1
  31   13   46 1
  32   13   47 1
  33   14   15 1
  34   14   48 1
  35   14   49 1
  36   15   50 1
  37   15   51 1
  38   15   52 1
  39   16   17 1
  40   17   18 1
  41   17   19 2
  42   18   20 ar
  43   18   24 ar
  44   20   21 ar
  45   20   53 1
  46   21   22 ar
  47   21   54 1
  48   22   23 ar
  49   22   55 1
  50   23   24 ar
  51   23   56 1
  52   24   25 1
  53   25   26 am
  54   25   29 am
  55   26   27 1
  56   26   30 2
  57   27   28 1
  58   27   32 1
  59   27   57 1
  60   28   29 1
  61   28   58 1
  62   28   59 1
  63   29   31 2
  64   32   60 1
  65   32   61 1
  66   32   62 1

#	End of record

