#	Name: ASD02398036
#	Creating user name:	WinNT
#	Creation time:	15. 06. 2019 20:20

#	Modifying user name:	WinNT
#	Modification time:	15. 06. 2019 20:20

#	Program:	/corina/corina34_cracker 3.40 0067  02.08.2006

@<TRIPOS>MOLECULE
ASD02398036
  70   74    0    0    0
SMALL
NO_CHARGES


@<TRIPOS>ATOM
   1 C1            -0.8714     1.0224     0.3886 C.ar    
   2 C2            -0.5357    -0.3348     0.3596 C.ar    
   3 C3            -1.5038    -1.2914     0.6548 C.ar    
   4 C4            -2.7875    -0.8967     0.9740 C.ar    
   5 C5            -3.1167     0.4468     1.0019 C.ar    
   6 C6            -2.1622     1.4048     0.7157 C.ar    
   7 C7            -3.8343    -1.9329     1.2927 C.3     
   8 C8            -3.7458    -2.3044     2.7505 C.2     
   9 O9            -2.8605    -1.8514     3.4367 O.2     
  10 O10           -4.6505    -3.1386     3.2866 O.3     
  11 C11            0.8450    -0.7535     0.0156 C.ar    
  12 C12            1.8999    -0.4621     0.8787 C.ar    
  13 C13            1.0914    -1.4448    -1.1689 C.ar    
  14 C14            2.3782    -1.8325    -1.4838 C.ar    
  15 C15            3.4220    -1.5360    -0.6261 C.ar    
  16 C16            3.1823    -0.8545     0.5538 C.ar    
  17 C17            1.6406     0.2807     2.1641 C.3     
  18 N18            2.8720     0.3309     2.9561 N.am    
  19 C19            3.8514     1.2349     2.8174 C.2     
  20 O20            4.8714     1.0619     3.6654 O.3     
  21 C21            4.6073    -0.0927     4.5140 C.3     
  22 C22            3.2321    -0.5989     4.0375 C.3     
  23 O23            3.8164     2.1297     1.9961 O.2     
  24 C24            3.3428    -2.0255     3.4956 C.3     
  25 C25            5.6630    -1.1490     4.3124 C.ar    
  26 C26            6.0556    -1.9449     5.3722 C.ar    
  27 C27            6.2346    -1.3259     3.0662 C.ar    
  28 C28            7.2030    -2.2949     2.8813 C.ar    
  29 C29            7.6000    -3.0867     3.9426 C.ar    
  30 C30            7.0240    -2.9139     5.1873 C.ar    
  31 O31            0.0663     1.9628     0.1026 O.3     
  32 C32           -0.3491     3.3292     0.1521 C.3     
  33 C33            0.8161     4.2212    -0.1913 C.ar    
  34 C34            1.0475     4.5800    -1.5061 C.ar    
  35 C35            1.6496     4.6848     0.8093 C.ar    
  36 C36            2.7181     5.5033     0.4950 C.ar    
  37 C37            2.9536     5.8581    -0.8213 C.ar    
  38 C38            2.1159     5.3980    -1.8217 C.ar    
  39 Cl39           4.2952     6.8865    -1.2168 Cl      
  40 C40            4.8246    -1.9624    -0.9752 C.3     
  41 F41            4.8159    -2.6348    -2.2020 F       
  42 F42            5.6457    -0.8335    -1.0679 F       
  43 F43            5.3143    -2.8147     0.0203 F       
  44 H44           -1.2505    -2.3411     0.6337 H       
  45 H45           -4.1229     0.7486     1.2524 H       
  46 H46           -2.4251     2.4520     0.7391 H       
  47 H47           -4.8235    -1.5273     1.0805 H       
  48 H48           -3.6661    -2.8193     0.6810 H       
  49 H49           -4.5527    -3.3475     4.2257 H       
  50 H50            0.2771    -1.6772    -1.8392 H       
  51 H51            2.5704    -2.3687    -2.4014 H       
  52 H52            4.0011    -0.6256     1.2198 H       
  53 H53            1.3126     1.2952     1.9376 H       
  54 H54            0.8648    -0.2340     2.7309 H       
  55 H55            4.5591     0.2058     5.5612 H       
  56 H56            2.5048    -0.5515     4.8479 H       
  57 H57            3.7338    -2.6805     4.2742 H       
  58 H58            2.3572    -2.3748     3.1881 H       
  59 H59            4.0163    -2.0374     2.6387 H       
  60 H60            5.6061    -1.8095     6.3448 H       
  61 H61            5.9244    -0.7073     2.2371 H       
  62 H62            7.6491    -2.4336     1.9076 H       
  63 H63            8.3563    -3.8440     3.7980 H       
  64 H64            7.3342    -3.5325     6.0164 H       
  65 H65           -1.1539     3.4905    -0.5651 H       
  66 H66           -0.7038     3.5650     1.1554 H       
  67 H67            0.3935     4.2207    -2.2869 H       
  68 H68            1.4657     4.4078     1.8368 H       
  69 H69            3.3689     5.8661     1.2769 H       
  70 H70            2.2995     5.6743    -2.8495 H       
@<TRIPOS>BOND
   1    1    2 ar
   2    1   31 1
   3    1    6 ar
   4    2    3 ar
   5    2   11 1
   6    3    4 ar
   7    3   44 1
   8    4    5 ar
   9    4    7 1
  10    5    6 ar
  11    5   45 1
  12    6   46 1
  13    7    8 1
  14    7   47 1
  15    7   48 1
  16    8    9 2
  17    8   10 1
  18   10   49 1
  19   11   12 ar
  20   11   13 ar
  21   12   17 1
  22   12   16 ar
  23   13   14 ar
  24   13   50 1
  25   14   15 ar
  26   14   51 1
  27   15   16 ar
  28   15   40 1
  29   16   52 1
  30   17   18 1
  31   17   53 1
  32   17   54 1
  33   18   19 am
  34   18   22 1
  35   19   20 1
  36   19   23 2
  37   20   21 1
  38   21   22 1
  39   21   25 1
  40   21   55 1
  41   22   24 1
  42   22   56 1
  43   24   57 1
  44   24   58 1
  45   24   59 1
  46   25   26 ar
  47   25   27 ar
  48   26   30 ar
  49   26   60 1
  50   27   28 ar
  51   27   61 1
  52   28   29 ar
  53   28   62 1
  54   29   30 ar
  55   29   63 1
  56   30   64 1
  57   31   32 1
  58   32   33 1
  59   32   65 1
  60   32   66 1
  61   33   34 ar
  62   33   35 ar
  63   34   38 ar
  64   34   67 1
  65   35   36 ar
  66   35   68 1
  67   36   37 ar
  68   36   69 1
  69   37   38 ar
  70   37   39 1
  71   38   70 1
  72   40   41 1
  73   40   42 1
  74   40   43 1

#	End of record

