#	Name: ASD01883080
#	Creating user name:	WinNT
#	Creation time:	15. 06. 2019 19:45

#	Modifying user name:	WinNT
#	Modification time:	15. 06. 2019 19:45

#	Program:	/corina/corina34_cracker 3.40 0067  02.08.2006

@<TRIPOS>MOLECULE
ASD01883080
  62   65    0    0    0
SMALL
NO_CHARGES


@<TRIPOS>ATOM
   1 N1            -0.0647     1.4386     0.2580 N.am    
   2 C2            -0.0285     0.0936     0.2231 C.2     
   3 C3            -1.2375    -0.6453     0.1895 C.2     
   4 C4            -2.4559     0.0544     0.1934 C.2     
   5 C5            -2.4276     1.4617     0.2306 C.2     
   6 C6            -1.2425     2.1132     0.2669 C.2     
   7 O7             1.0428    -0.4884     0.2202 O.2     
   8 C8            -1.2176    -2.0767     0.1518 C.1     
   9 N9            -1.2018    -3.2122     0.1218 N.1     
  10 C10            1.1927     2.1896     0.2930 C.3     
  11 C11            1.6412     2.4843    -1.1152 C.ar    
  12 C12            1.2319     3.6475    -1.7407 C.ar    
  13 C13            1.6417     3.9200    -3.0315 C.ar    
  14 C14            2.4645     3.0253    -3.7003 C.ar    
  15 C15            2.8738     1.8589    -3.0705 C.ar    
  16 C16            2.4658     1.5938    -1.7775 C.ar    
  17 C17           -3.7435    -0.6732     0.1586 C.ar    
  18 C18           -4.6178    -0.6030     1.2444 C.ar    
  19 C19           -5.8169    -1.2840     1.2056 C.ar    
  20 C20           -6.1534    -2.0357     0.0937 C.ar    
  21 C21           -5.2912    -2.1095    -0.9860 C.ar    
  22 C22           -4.0918    -1.4283    -0.9625 C.ar    
  23 C23           -7.4646    -2.7778     0.0587 C.3     
  24 N24           -8.5277    -1.8723    -0.3971 N.3     
  25 C25           -8.7097    -0.7575     0.5439 C.3     
  26 C26           -9.8637     0.1261     0.0629 C.3     
  27 O27           -9.5893     0.5784    -1.2658 O.3     
  28 C28           -9.4071    -0.4813    -2.2087 C.3     
  29 C29           -8.2485    -1.3711    -1.7507 C.3     
  30 C30           -8.1001    -2.5519    -2.7122 C.3     
  31 C31           -9.0339    -1.3097     1.9335 C.3     
  32 O32            2.8686     3.2909    -4.9703 O.3     
  33 C33            3.7149     2.3250    -5.5972 C.3     
  34 F34            3.0504     1.0958    -5.6634 F       
  35 F35            4.0333     2.7534    -6.8904 F       
  36 F36            4.8897     2.1805    -4.8514 F       
  37 H37           -3.3517     2.0206     0.2343 H       
  38 H38           -1.2333     3.1928     0.2952 H       
  39 H39            1.0417     3.1262     0.8297 H       
  40 H40            1.9549     1.5986     0.8009 H       
  41 H41            0.5911     4.3435    -1.2198 H       
  42 H42            1.3215     4.8285    -3.5198 H       
  43 H43            3.5144     1.1609    -3.5890 H       
  44 H44            2.7842     0.6859    -1.2868 H       
  45 H45           -4.3560    -0.0172     2.1131 H       
  46 H46           -6.4943    -1.2305     2.0450 H       
  47 H47           -5.5598    -2.6980    -1.8508 H       
  48 H48           -3.4198    -1.4863    -1.8059 H       
  49 H49           -7.3866    -3.6211    -0.6275 H       
  50 H50           -7.7021    -3.1432     1.0578 H       
  51 H51           -7.7944    -0.1675     0.5905 H       
  52 H52          -10.7893    -0.4496     0.0675 H       
  53 H53           -9.9653     0.9851     0.7261 H       
  54 H54          -10.3194    -1.0747    -2.2701 H       
  55 H55           -9.1785    -0.0616    -3.1883 H       
  56 H56           -7.3258    -0.7908    -1.7408 H       
  57 H57           -7.9823    -2.1794    -3.7297 H       
  58 H58           -7.2233    -3.1375    -2.4359 H       
  59 H59           -8.9891    -3.1802    -2.6560 H       
  60 H60           -8.2136    -1.9418     2.2737 H       
  61 H61           -9.1687    -0.4827     2.6307 H       
  62 H62           -9.9503    -1.8979     1.8860 H       
@<TRIPOS>BOND
   1    1    2 am
   2    1   10 1
   3    1    6 1
   4    2    3 1
   5    2    7 2
   6    3    4 2
   7    3    8 1
   8    4    5 1
   9    4   17 1
  10    5    6 2
  11    5   37 1
  12    6   38 1
  13    8    9 3
  14   10   11 1
  15   10   39 1
  16   10   40 1
  17   11   12 ar
  18   11   16 ar
  19   12   13 ar
  20   12   41 1
  21   13   14 ar
  22   13   42 1
  23   14   15 ar
  24   14   32 1
  25   15   16 ar
  26   15   43 1
  27   16   44 1
  28   17   18 ar
  29   17   22 ar
  30   18   19 ar
  31   18   45 1
  32   19   20 ar
  33   19   46 1
  34   20   21 ar
  35   20   23 1
  36   21   22 ar
  37   21   47 1
  38   22   48 1
  39   23   24 1
  40   23   49 1
  41   23   50 1
  42   24   25 1
  43   24   29 1
  44   25   26 1
  45   25   31 1
  46   25   51 1
  47   26   27 1
  48   26   52 1
  49   26   53 1
  50   27   28 1
  51   28   29 1
  52   28   54 1
  53   28   55 1
  54   29   30 1
  55   29   56 1
  56   30   57 1
  57   30   58 1
  58   30   59 1
  59   31   60 1
  60   31   61 1
  61   31   62 1
  62   32   33 1
  63   33   34 1
  64   33   35 1
  65   33   36 1

#	End of record

