#	Name: ASD01914449
#	Creating user name:	WinNT
#	Creation time:	15. 06. 2019 20:03

#	Modifying user name:	WinNT
#	Modification time:	15. 06. 2019 20:03

#	Program:	/corina/corina34_cracker 3.40 0067  02.08.2006

@<TRIPOS>MOLECULE
ASD01914449
  41   44    0    0    0
SMALL
NO_CHARGES


@<TRIPOS>ATOM
   1 C1            -0.0187     1.5258     0.0104 C.3     
   2 C2             0.0021    -0.0041     0.0020 C.3     
   3 C3             0.7182    -0.4975    -1.2568 C.3     
   4 C4            -0.0218     0.0093    -2.4963 C.3     
   5 C5            -0.0425     1.5392    -2.4879 C.3     
   6 C6             1.3929     2.0688    -2.4988 C.3     
   7 C7             2.1328     1.5619    -1.2592 C.3     
   8 C8             1.4167     2.0553    -0.0004 C.3     
   9 C9             2.1536     0.0321    -1.2676 C.3     
  10 C10           -0.7587     2.0326    -1.2291 C.3     
  11 C11           -0.7240     2.0118     1.2503 C.2     
  12 O12           -1.1649     1.2162     2.0456 O.2     
  13 O13           -0.8625     3.3285     1.4711 O.3     
  14 N14            0.7381    -1.9623    -1.2648 N.am    
  15 C15            1.3211    -2.6228    -2.2848 C.2     
  16 O16            1.8303    -2.0032    -3.1978 O.2     
  17 C17            1.3412    -4.1041    -2.2930 C.ar    
  18 C18            1.9438    -4.7895    -3.3473 C.ar    
  19 N19            0.7893    -4.7841    -1.2920 N.ar    
  20 N20            1.9596    -6.1102    -3.3498 N.ar    
  21 C21            1.4054    -6.7809    -2.3553 C.ar    
  22 C22            0.8095    -6.1019    -1.3024 C.ar    
  23 H23            0.5293    -0.3651     0.8851 H       
  24 H24           -1.0205    -0.3814     0.0098 H       
  25 H25            0.4884    -0.3422    -3.3931 H       
  26 H26           -1.0444    -0.3679    -2.4886 H       
  27 H27           -0.5697     1.9003    -3.3710 H       
  28 H28            1.9030     1.7172    -3.3956 H       
  29 H29            1.3781     3.1587    -2.4928 H       
  30 H30            3.1554     1.9392    -1.2670 H       
  31 H31            1.4019     3.1452     0.0056 H       
  32 H32            1.9439     1.6943     0.8826 H       
  33 H33            2.6808    -0.3290    -0.3846 H       
  34 H34            2.6638    -0.3194    -2.1644 H       
  35 H35           -1.7813     1.6553    -1.2214 H       
  36 H36           -0.7734     3.1225    -1.2231 H       
  37 H37           -1.3222     3.5920     2.2801 H       
  38 H38            0.3316    -2.4569    -0.5361 H       
  39 H39            2.3965    -4.2414    -4.1604 H       
  40 H40            1.4199    -7.8608    -2.3601 H       
  41 H41            0.3617    -6.6543    -0.4895 H       
@<TRIPOS>BOND
   1    1    2 1
   2    1    8 1
   3    1   10 1
   4    1   11 1
   5    2    3 1
   6    2   23 1
   7    2   24 1
   8    3    4 1
   9    3    9 1
  10    3   14 1
  11    4    5 1
  12    4   25 1
  13    4   26 1
  14    5    6 1
  15    5   10 1
  16    5   27 1
  17    6    7 1
  18    6   28 1
  19    6   29 1
  20    7    8 1
  21    7    9 1
  22    7   30 1
  23    8   31 1
  24    8   32 1
  25    9   33 1
  26    9   34 1
  27   10   35 1
  28   10   36 1
  29   11   12 2
  30   11   13 1
  31   13   37 1
  32   14   15 am
  33   14   38 1
  34   15   16 2
  35   15   17 1
  36   17   18 ar
  37   17   19 ar
  38   18   20 ar
  39   18   39 1
  40   19   22 ar
  41   20   21 ar
  42   21   22 ar
  43   21   40 1
  44   22   41 1

#	End of record

