#	Name: ASD02408129
#	Creating user name:	WinNT
#	Creation time:	15. 06. 2019 20:21

#	Modifying user name:	WinNT
#	Modification time:	15. 06. 2019 20:21

#	Program:	/corina/corina34_cracker 3.40 0067  02.08.2006

@<TRIPOS>MOLECULE
ASD02408129
  50   53    0    0    0
SMALL
NO_CHARGES


@<TRIPOS>ATOM
   1 C1            -0.6156     1.5330     0.0063 C.ar    
   2 C2            -0.7061     0.1553    -0.1803 C.ar    
   3 C3             0.6347     2.1485     0.0202 C.ar    
   4 C4             1.7756     1.3912    -0.1507 C.ar    
   5 C5             1.6798     0.0235    -0.3357 C.ar    
   6 C6             0.4417    -0.5925    -0.3503 C.ar    
   7 C7             0.7406     3.6383     0.2211 C.3     
   8 C8             0.6177     3.9573     1.6888 C.2     
   9 N9             0.6865     5.2434     2.0836 N.am    
  10 N10            0.4429     2.9786     2.5347 N.2     
  11 C11            0.3268     3.2024     3.8499 C.2     
  12 C12            0.3946     4.5203     4.3313 C.2     
  13 C13            0.5799     5.5652     3.3900 C.2     
  14 N14            0.1430     2.1547     4.7186 N.pl3   
  15 C15            0.7030     0.8043     4.5631 C.3     
  16 O16            0.6458     6.7269     3.7531 O.2     
  17 C17           -1.8462     2.3428     0.1834 C.ar    
  18 C18           -2.1199     3.4141    -0.6733 C.ar    
  19 C19           -3.2783     4.1392    -0.4689 C.ar    
  20 C20           -4.1269     3.7835     0.5725 C.ar    
  21 N21           -3.8390     2.7642     1.3656 N.ar    
  22 C22           -2.7478     2.0438     1.2012 C.ar    
  23 O23           -5.2656     4.4912     0.7792 O.3     
  24 C24           -6.0980     4.0784     1.8650 C.3     
  25 C25            0.2109    -0.0364     5.7600 C.3     
  26 C26           -1.0578     0.7274     6.2229 C.3     
  27 C27           -0.6433     2.1998     5.9648 C.3     
  28 C28            0.2749     4.8011     5.7304 C.1     
  29 N29            0.1800     5.0239     6.8403 N.1     
  30 H30           -1.6725    -0.3268    -0.1916 H       
  31 H31            2.7450     1.8672    -0.1405 H       
  32 H32            2.5753    -0.5652    -0.4694 H       
  33 H33            0.3727    -1.6605    -0.4951 H       
  34 H34            1.7055     3.9869    -0.1470 H       
  35 H35           -0.0589     4.1366    -0.3272 H       
  36 H36            0.8139     5.9433     1.4242 H       
  37 H37            0.3520     0.3625     3.6305 H       
  38 H38            1.7920     0.8519     4.5663 H       
  39 H39           -1.4421     3.6686    -1.4748 H       
  40 H40           -3.5213     4.9729    -1.1110 H       
  41 H41           -2.5462     1.2190     1.8686 H       
  42 H42           -6.9728     4.7264     1.9189 H       
  43 H43           -6.4179     3.0486     1.7064 H       
  44 H44           -5.5381     4.1454     2.7978 H       
  45 H45           -0.0423    -1.0480     5.4426 H       
  46 H46            0.9599    -0.0556     6.5517 H       
  47 H47           -1.9226     0.4500     5.6201 H       
  48 H48           -1.2513     0.5577     7.2821 H       
  49 H49           -0.0361     2.5731     6.7895 H       
  50 H50           -1.5264     2.8244     5.8299 H       
@<TRIPOS>BOND
   1    1    2 ar
   2    1    3 ar
   3    1   17 1
   4    2    6 ar
   5    2   30 1
   6    3    4 ar
   7    3    7 1
   8    4    5 ar
   9    4   31 1
  10    5    6 ar
  11    5   32 1
  12    6   33 1
  13    7    8 1
  14    7   34 1
  15    7   35 1
  16    8    9 1
  17    8   10 2
  18    9   13 am
  19    9   36 1
  20   10   11 1
  21   11   12 2
  22   11   14 1
  23   12   13 1
  24   12   28 1
  25   13   16 2
  26   14   15 1
  27   14   27 1
  28   15   25 1
  29   15   37 1
  30   15   38 1
  31   17   18 ar
  32   17   22 ar
  33   18   19 ar
  34   18   39 1
  35   19   20 ar
  36   19   40 1
  37   20   21 ar
  38   20   23 1
  39   21   22 ar
  40   22   41 1
  41   23   24 1
  42   24   42 1
  43   24   43 1
  44   24   44 1
  45   25   26 1
  46   25   45 1
  47   25   46 1
  48   26   27 1
  49   26   47 1
  50   26   48 1
  51   27   49 1
  52   27   50 1
  53   28   29 3

#	End of record

