#	Name: ASD01811420
#	Creating user name:	WinNT
#	Creation time:	15. 06. 2019 19:26

#	Modifying user name:	WinNT
#	Modification time:	15. 06. 2019 19:26

#	Program:	/corina/corina34_cracker 3.40 0067  02.08.2006

@<TRIPOS>MOLECULE
ASD01811420
  22   22    0    0    0
SMALL
NO_CHARGES


@<TRIPOS>ATOM
   1 C1            -0.0180     1.4732     0.0101 C.2     
   2 C2             0.0021    -0.0041     0.0020 C.ar    
   3 C3             1.2176    -0.6861    -0.0133 C.ar    
   4 C4             1.2272    -2.0795    -0.0209 C.ar    
   5 C5             0.0198    -2.7834    -0.0132 C.ar    
   6 C6            -1.1804    -2.1014     0.0020 C.ar    
   7 C7            -1.1972    -0.7206     0.0154 C.ar    
   8 O8             1.0256     2.0948     0.0035 O.2     
   9 O9            -1.1936     2.1308     0.0193 O.3     
  10 C10            0.0281    -4.2904    -0.0219 C.3     
  11 C11            2.4712    -2.7885    -0.0370 C.1     
  12 N12            3.4581    -3.3510    -0.0499 N.1     
  13 C13           -1.1373     3.5817     0.0269 C.3     
  14 H14            2.1476    -0.1371    -0.0195 H       
  15 H15           -2.1105    -2.6503     0.0075 H       
  16 H16           -2.1396    -0.1934     0.0321 H       
  17 H17            0.0400    -4.6596     1.0036 H       
  18 H18           -0.8649    -4.6557    -0.5292 H       
  19 H19            0.9150    -4.6458    -0.5464 H       
  20 H20           -0.6055     3.9200     0.9162 H       
  21 H21           -0.6140     3.9297    -0.8637 H       
  22 H22           -2.1501     3.9846     0.0339 H       
@<TRIPOS>BOND
   1    1    2 1
   2    1    8 2
   3    1    9 1
   4    2    3 ar
   5    2    7 ar
   6    3    4 ar
   7    3   14 1
   8    4    5 ar
   9    4   11 1
  10    5    6 ar
  11    5   10 1
  12    6    7 ar
  13    6   15 1
  14    7   16 1
  15    9   13 1
  16   10   17 1
  17   10   18 1
  18   10   19 1
  19   11   12 3
  20   13   20 1
  21   13   21 1
  22   13   22 1

#	End of record

