#	Name: ASD03430618
#	Creating user name:	WinNT
#	Creation time:	15. 06. 2019 20:41

#	Modifying user name:	WinNT
#	Modification time:	15. 06. 2019 20:41

#	Program:	/corina/corina34_cracker 3.40 0067  02.08.2006

@<TRIPOS>MOLECULE
ASD03430618
  59   62    0    0    0
SMALL
NO_CHARGES


@<TRIPOS>ATOM
   1 N1            -0.0161     1.3395     0.0094 N.am    
   2 C2             0.0021    -0.0041     0.0020 C.2     
   3 C3             1.4549    -0.4293    -0.0141 C.3     
   4 C4             2.2198     0.8742    -0.0144 C.ar    
   5 C5             3.5697     1.1712    -0.0257 C.ar    
   6 C6             3.9870     2.4951    -0.0226 C.ar    
   7 C7             3.0494     3.5113    -0.0082 C.ar    
   8 C8             1.6981     3.2159     0.0036 C.ar    
   9 C9             1.2702     1.8851     0.0001 C.ar    
  10 O10           -0.9636    -0.7380     0.0079 O.2     
  11 C11           -1.2431     2.1400     0.0198 C.3     
  12 C12           -1.6628     2.4114     1.4658 C.3     
  13 O13           -0.6757     3.2242     2.1038 O.3     
  14 C14           -0.9729     3.5378     3.4659 C.3     
  15 C15            0.1453     4.4070     4.0448 C.3     
  16 O16            0.1725     5.6635     3.3648 O.3     
  17 C17            1.1867     6.5553     3.8317 C.3     
  18 O18            0.7834     4.2229     0.0182 O.3     
  19 C19            1.2896     5.5592     0.0205 C.3     
  20 O20            4.4875     0.1680    -0.0394 O.3     
  21 C21            5.8648     0.5489    -0.0505 C.3     
  22 O22            2.6814    -3.4580     4.5849 O.3     
  23 C23            2.8390    -2.7452     5.8165 C.3     
  24 C24            1.6747    -1.7543     5.9504 C.3     
  25 O25            1.7180    -0.8587     4.8342 O.3     
  26 C26            1.9016    -1.4193     3.6064 C.ar    
  27 C27            2.3847    -2.7168     3.4824 C.ar    
  28 C28            1.6009    -0.6822     2.4713 C.ar    
  29 C29            1.7832    -1.2338     1.2172 C.ar    
  30 C30            2.2676    -2.5269     1.0910 C.ar    
  31 C31            2.5681    -3.2681     2.2236 C.ar    
  32 O32            2.4473    -3.0682    -0.1434 O.3     
  33 H33            1.6753    -1.0015    -0.9153 H       
  34 H34            5.0409     2.7307    -0.0310 H       
  35 H35            3.3739     4.5414    -0.0058 H       
  36 H36           -1.0637     3.0865    -0.4902 H       
  37 H37           -2.0363     1.5958    -0.4928 H       
  38 H38           -2.6215     2.9299     1.4747 H       
  39 H39           -1.7560     1.4661     2.0006 H       
  40 H40           -1.9173     4.0798     3.5163 H       
  41 H41           -1.0518     2.6160     4.0421 H       
  42 H42           -0.0359     4.5724     5.1068 H       
  43 H43            1.1025     3.9023     3.9139 H       
  44 H44            1.0271     6.7653     4.8893 H       
  45 H45            2.1655     6.0952     3.6964 H       
  46 H46            1.1412     7.4857     3.2656 H       
  47 H47            0.4573     6.2630     0.0326 H       
  48 H48            1.9076     5.7121     0.9052 H       
  49 H49            1.8900     5.7219    -0.8746 H       
  50 H50            6.0696     1.1454    -0.9395 H       
  51 H51            6.0865     1.1365     0.8403 H       
  52 H52            6.4888    -0.3448    -0.0609 H       
  53 H53            2.8232    -3.4458     6.6513 H       
  54 H54            3.7843    -2.2027     5.8089 H       
  55 H55            0.7289    -2.2962     5.9505 H       
  56 H56            1.7762    -1.1909     6.8779 H       
  57 H57            1.2239     0.3253     2.5673 H       
  58 H58            2.9456    -4.2751     2.1251 H       
  59 H59            3.3259    -2.9136    -0.5165 H       
@<TRIPOS>BOND
   1    1    2 am
   2    1    9 1
   3    1   11 1
   4    2    3 1
   5    2   10 2
   6    3    4 1
   7    3   29 1
   8    3   33 1
   9    4    5 ar
  10    4    9 ar
  11    5    6 ar
  12    5   20 1
  13    6    7 ar
  14    6   34 1
  15    7    8 ar
  16    7   35 1
  17    8    9 ar
  18    8   18 1
  19   11   12 1
  20   11   36 1
  21   11   37 1
  22   12   13 1
  23   12   38 1
  24   12   39 1
  25   13   14 1
  26   14   15 1
  27   14   40 1
  28   14   41 1
  29   15   16 1
  30   15   42 1
  31   15   43 1
  32   16   17 1
  33   17   44 1
  34   17   45 1
  35   17   46 1
  36   18   19 1
  37   19   47 1
  38   19   48 1
  39   19   49 1
  40   20   21 1
  41   21   50 1
  42   21   51 1
  43   21   52 1
  44   22   23 1
  45   22   27 1
  46   23   24 1
  47   23   53 1
  48   23   54 1
  49   24   25 1
  50   24   55 1
  51   24   56 1
  52   25   26 1
  53   26   27 ar
  54   26   28 ar
  55   27   31 ar
  56   28   29 ar
  57   28   57 1
  58   29   30 ar
  59   30   31 ar
  60   30   32 1
  61   31   58 1
  62   32   59 1

#	End of record

