#	Name: ASD04880421
#	Creating user name:	WinNT
#	Creation time:	15. 06. 2019 20:53

#	Modifying user name:	WinNT
#	Modification time:	15. 06. 2019 20:53

#	Program:	/corina/corina34_cracker 3.40 0067  02.08.2006

@<TRIPOS>MOLECULE
ASD04880421
  41   44    0    0    0
SMALL
NO_CHARGES


@<TRIPOS>ATOM
   1 C1            -0.0052     1.3607     0.3030 C.ar    
   2 C2             0.0101    -0.0226     0.2693 C.ar    
   3 C3            -1.1744    -0.7277     0.2217 C.ar    
   4 C4            -2.3914    -0.0420     0.2075 C.ar    
   5 C5            -2.3992     1.3544     0.2417 C.ar    
   6 C6            -1.2071     2.0463     0.2945 C.ar    
   7 C7            -3.6620    -0.7889     0.1561 C.2     
   8 N8            -3.7690    -2.0723     0.1217 N.2     
   9 N9            -5.0832    -2.5330     0.0768 N.am    
  10 C10           -5.9932    -1.3766     0.0820 C.3     
  11 C11           -5.0399    -0.1666     0.1422 C.3     
  12 C12           -5.4595    -3.8265     0.0352 C.2     
  13 C13           -4.4417    -4.8873    -0.0914 C.ar    
  14 O14           -6.6381    -4.1194     0.1021 O.2     
  15 C15           -3.1035    -4.5512    -0.3127 C.ar    
  16 C16           -2.1537    -5.5472    -0.4302 C.ar    
  17 C17           -2.5316    -6.8866    -0.3279 C.ar    
  18 C18           -3.8617    -7.2193    -0.1080 C.ar    
  19 C19           -4.8126    -6.2302     0.0155 C.ar    
  20 S20            1.5128     2.2530     0.3644 S.o     
  21 C21            1.9102     2.5033    -1.3877 C.3     
  22 O22            1.1317     3.4926     0.9454 O.2     
  23 O23           -0.8064    -5.4900    -0.6439 O.3     
  24 C24           -0.3025    -6.7840    -0.2638 C.3     
  25 O25           -1.4214    -7.6641    -0.4781 O.3     
  26 H26            0.9517    -0.5513     0.2800 H       
  27 H27           -1.1610    -1.8073     0.1950 H       
  28 H28           -3.3364     1.8910     0.2310 H       
  29 H29           -1.2116     3.1260     0.3211 H       
  30 H30           -6.5902    -1.3540    -0.8298 H       
  31 H31           -6.6360    -1.3982     0.9620 H       
  32 H32           -5.2131     0.4118     1.0497 H       
  33 H33           -5.1616     0.4604    -0.7410 H       
  34 H34           -2.8123    -3.5142    -0.3921 H       
  35 H35           -4.1510    -8.2569    -0.0295 H       
  36 H36           -5.8461    -6.4930     0.1865 H       
  37 H37            1.1102     3.0697    -1.8644 H       
  38 H38            2.8465     3.0548    -1.4728 H       
  39 H39            2.0127     1.5356    -1.8788 H       
  40 H40            0.5365    -7.0698    -0.8983 H       
  41 H41           -0.0084    -6.7872     0.7858 H       
@<TRIPOS>BOND
   1    1    2 ar
   2    1   20 1
   3    1    6 ar
   4    2    3 ar
   5    2   26 1
   6    3    4 ar
   7    3   27 1
   8    4    5 ar
   9    4    7 1
  10    5    6 ar
  11    5   28 1
  12    6   29 1
  13    7    8 2
  14    7   11 1
  15    8    9 1
  16    9   10 1
  17    9   12 am
  18   10   11 1
  19   10   30 1
  20   10   31 1
  21   11   32 1
  22   11   33 1
  23   12   13 1
  24   12   14 2
  25   13   15 ar
  26   13   19 ar
  27   15   16 ar
  28   15   34 1
  29   16   17 ar
  30   16   23 1
  31   17   18 ar
  32   17   25 1
  33   18   19 ar
  34   18   35 1
  35   19   36 1
  36   20   21 1
  37   20   22 2
  38   21   37 1
  39   21   38 1
  40   21   39 1
  41   23   24 1
  42   24   25 1
  43   24   40 1
  44   24   41 1

#	End of record

