#	Name: ASD00171019
#	Creating user name:	WinNT
#	Creation time:	15. 06. 2019 18:32

#	Modifying user name:	WinNT
#	Modification time:	15. 06. 2019 18:32

#	Program:	/corina/corina34_cracker 3.40 0067  02.08.2006

@<TRIPOS>MOLECULE
ASD00171019
  56   59    0    0    0
SMALL
NO_CHARGES


@<TRIPOS>ATOM
   1 C1            -0.0144     1.2093     0.0087 C.2     
   2 O2             0.0021    -0.0041     0.0020 O.2     
   3 C3             1.2436     1.9587     0.0007 C.ar    
   4 C4             1.2310     3.3715     0.0084 C.ar    
   5 C5             2.4385     4.0691     0.0006 C.ar    
   6 C6             3.6336     3.3800    -0.0146 C.ar    
   7 C7             3.6472     1.9909    -0.0226 C.ar    
   8 C8             2.4689     1.2807    -0.0088 C.ar    
   9 Cl9            5.1325     4.2557    -0.0242 Cl      
  10 C10           -0.7158     4.4831    -1.1095 C.2     
  11 C11           -0.0500     4.1032     0.0241 C.2     
  12 C12           -0.7296     4.4909     1.2362 C.2     
  13 C13           -1.8680     5.1404     1.0389 C.2     
  14 S14           -2.1944     5.3267    -0.6759 S.3     
  15 C15           -0.1913     4.1832     2.6098 C.3     
  16 N16            0.8503     5.1591     2.9574 N.3     
  17 C17            1.2317     5.0409     4.3717 C.3     
  18 C18            2.3713     6.0170     4.6732 C.3     
  19 N19            1.9363     7.3855     4.3606 N.3     
  20 C20            1.5549     7.5036     2.9463 C.3     
  21 C21            0.4152     6.5275     2.6448 C.3     
  22 C22            2.9779     8.3613     4.7082 C.3     
  23 C23            2.5994     9.7331     4.1463 C.3     
  24 C24            3.6679    10.7342     4.5029 C.ar    
  25 C25            4.7372    10.9368     3.6504 C.ar    
  26 C26            5.7174    11.8548     3.9770 C.ar    
  27 C27            5.6285    12.5711     5.1573 C.ar    
  28 C28            4.5581    12.3679     6.0101 C.ar    
  29 C29            3.5756    11.4537     5.6798 C.ar    
  30 Cl30           6.8596    13.7239     5.5684 Cl      
  31 N31           -0.2847     4.2432    -2.4065 N.pl3   
  32 H32           -0.9569     1.7366     0.0160 H       
  33 H33            2.4382     5.1491     0.0060 H       
  34 H34            4.5901     1.4643    -0.0348 H       
  35 H35            2.4888     0.2008    -0.0100 H       
  36 H36           -2.5092     5.5058     1.8275 H       
  37 H37           -1.0002     4.2401     3.3382 H       
  38 H38            0.2341     3.1797     2.6168 H       
  39 H39            0.3737     5.2781     5.0008 H       
  40 H40            1.5619     4.0223     4.5754 H       
  41 H41            2.6364     5.9518     5.7285 H       
  42 H42            3.2386     5.7629     4.0637 H       
  43 H43            1.2247     8.5222     2.7426 H       
  44 H44            2.4128     7.2665     2.3172 H       
  45 H45            0.1502     6.5927     1.5895 H       
  46 H46           -0.4520     6.7816     3.2543 H       
  47 H47            3.0685     8.4253     5.7926 H       
  48 H48            3.9297     8.0441     4.2822 H       
  49 H49            2.5088     9.6692     3.0620 H       
  50 H50            1.6476    10.0503     4.5724 H       
  51 H51            4.8067    10.3774     2.7292 H       
  52 H52            6.5529    12.0128     3.3110 H       
  53 H53            4.4881    12.9267     6.9316 H       
  54 H54            2.7377    11.2981     6.3433 H       
  55 H55            0.5490     3.7721    -2.5612 H       
  56 H56           -0.8171     4.5465    -3.1585 H       
@<TRIPOS>BOND
   1    1    2 2
   2    1    3 1
   3    1   32 1
   4    3    4 ar
   5    3    8 ar
   6    4    5 ar
   7    4   11 1
   8    5    6 ar
   9    5   33 1
  10    6    7 ar
  11    6    9 1
  12    7    8 ar
  13    7   34 1
  14    8   35 1
  15   10   11 2
  16   10   14 1
  17   10   31 1
  18   11   12 1
  19   12   13 2
  20   12   15 1
  21   13   14 1
  22   13   36 1
  23   15   16 1
  24   15   37 1
  25   15   38 1
  26   16   17 1
  27   16   21 1
  28   17   18 1
  29   17   39 1
  30   17   40 1
  31   18   19 1
  32   18   41 1
  33   18   42 1
  34   19   20 1
  35   19   22 1
  36   20   21 1
  37   20   43 1
  38   20   44 1
  39   21   45 1
  40   21   46 1
  41   22   23 1
  42   22   47 1
  43   22   48 1
  44   23   24 1
  45   23   49 1
  46   23   50 1
  47   24   25 ar
  48   24   29 ar
  49   25   26 ar
  50   25   51 1
  51   26   27 ar
  52   26   52 1
  53   27   28 ar
  54   27   30 1
  55   28   29 ar
  56   28   53 1
  57   29   54 1
  58   31   55 1
  59   31   56 1

#	End of record

