#	Name: ASD03330793
#	Creating user name:	WinNT
#	Creation time:	15. 06. 2019 20:37

#	Modifying user name:	WinNT
#	Modification time:	15. 06. 2019 20:37

#	Program:	/corina/corina34_cracker 3.40 0067  02.08.2006

@<TRIPOS>MOLECULE
ASD03330793
  60   62    0    0    0
SMALL
NO_CHARGES


@<TRIPOS>ATOM
   1 C1             0.7794     1.4275     0.2193 C.2     
   2 N2             0.6850     0.0721     0.2674 N.pl3   
   3 C3             2.0968     1.7314     0.0552 C.2     
   4 N4             2.7827     0.5694    -0.0119 N.2     
   5 C5             1.9428    -0.4319     0.1088 C.2     
   6 C6             2.3002    -1.8668     0.0787 C.ar    
   7 C7             2.6712     3.0855    -0.0338 C.2     
   8 O8             1.9466     4.0595     0.0402 O.2     
   9 C9             4.5706     4.5908    -0.2857 C.3     
  10 N10            3.9995     3.2446    -0.1972 N.am    
  11 C11            5.8896     4.5354    -1.0591 C.3     
  12 C12            4.8238     5.1213     1.1019 C.2     
  13 O13            4.5538     4.4417     2.0695 O.2     
  14 C14           -0.5523    -0.6869     0.4689 C.3     
  15 C15           -1.6388    -0.1315    -0.4573 C.3     
  16 C16           -2.3660     1.0183     0.2322 C.3     
  17 N17           -1.4560     1.7768     1.0927 N.3     
  18 C18           -0.3728     2.3938     0.3127 C.3     
  19 C19            1.8056    -2.7326     1.0545 C.ar    
  20 C20            2.1428    -4.0718     1.0205 C.ar    
  21 C21           -2.1861     2.7869     1.8703 C.3     
  22 N22            5.3503     6.3508     1.2676 N.am    
  23 C23            2.9710    -4.5558     0.0201 C.ar    
  24 C24            5.6115     4.1574    -2.5154 C.3     
  25 C25            3.1299    -2.3620    -0.9304 C.ar    
  26 C26            3.4648    -3.7032    -0.9495 C.ar    
  27 F27            3.6083    -1.5310    -1.8821 F       
  28 F28            1.6647    -4.9115     1.9648 F       
  29 C29            4.5837     5.1247    -3.1060 C.3     
  30 C30            6.9100     4.2389    -3.3204 C.3     
  31 C31            5.0626     2.7305    -2.5760 C.3     
  32 H32            3.8727     5.2482    -0.8043 H       
  33 H33            4.5774     2.4678    -0.2563 H       
  34 H34            6.3731     5.5116    -1.0231 H       
  35 H35            6.5439     3.7890    -0.6086 H       
  36 H36           -0.3773    -1.7373     0.2363 H       
  37 H37           -0.8738    -0.5910     1.5060 H       
  38 H38           -1.1804     0.2296    -1.3780 H       
  39 H39           -2.3517    -0.9213    -0.6941 H       
  40 H40           -2.7809     1.6842    -0.5245 H       
  41 H41           -3.1784     0.6160     0.8374 H       
  42 H42           -0.0429     3.3078     0.8067 H       
  43 H43           -0.7332     2.6292    -0.6887 H       
  44 H44            1.1608    -2.3565     1.8350 H       
  45 H45           -2.9306     2.2952     2.4964 H       
  46 H46           -1.4865     3.3357     2.5007 H       
  47 H47           -2.6830     3.4793     1.1907 H       
  48 H48            5.5663     6.8943     0.4937 H       
  49 H49            5.5133     6.6923     2.1608 H       
  50 H50            3.2319    -5.6036    -0.0018 H       
  51 H51            4.1061    -4.0874    -1.7290 H       
  52 H52            4.9747     6.1413    -3.0628 H       
  53 H53            4.3855     4.8554    -4.1434 H       
  54 H54            3.6586     5.0666    -2.5325 H       
  55 H55            7.6422     3.5498    -2.8996 H       
  56 H56            6.7118     3.9697    -4.3578 H       
  57 H57            7.3010     5.2555    -3.2772 H       
  58 H58            4.0629     2.7071    -2.1421 H       
  59 H59            5.0157     2.4031    -3.6146 H       
  60 H60            5.7181     2.0649    -2.0144 H       
@<TRIPOS>BOND
   1    1    2 1
   2    1    3 2
   3    1   18 1
   4    2   14 1
   5    2    5 1
   6    3    4 1
   7    3    7 1
   8    4    5 2
   9    5    6 1
  10    6   25 ar
  11    6   19 ar
  12    7    8 2
  13    7   10 am
  14    9   10 1
  15    9   11 1
  16    9   12 1
  17    9   32 1
  18   10   33 1
  19   11   24 1
  20   11   34 1
  21   11   35 1
  22   12   13 2
  23   12   22 am
  24   14   15 1
  25   14   36 1
  26   14   37 1
  27   15   16 1
  28   15   38 1
  29   15   39 1
  30   16   17 1
  31   16   40 1
  32   16   41 1
  33   17   18 1
  34   17   21 1
  35   18   42 1
  36   18   43 1
  37   19   20 ar
  38   19   44 1
  39   20   28 1
  40   20   23 ar
  41   21   45 1
  42   21   46 1
  43   21   47 1
  44   22   48 1
  45   22   49 1
  46   23   26 ar
  47   23   50 1
  48   24   29 1
  49   24   30 1
  50   24   31 1
  51   25   26 ar
  52   25   27 1
  53   26   51 1
  54   29   52 1
  55   29   53 1
  56   29   54 1
  57   30   55 1
  58   30   56 1
  59   30   57 1
  60   31   58 1
  61   31   59 1
  62   31   60 1

#	End of record

