#	Name: ASD01230142
#	Creating user name:	WinNT
#	Creation time:	15. 06. 2019 19:11

#	Modifying user name:	WinNT
#	Modification time:	15. 06. 2019 19:11

#	Program:	/corina/corina34_cracker 3.40 0067  02.08.2006

@<TRIPOS>MOLECULE
ASD01230142
  93   98    0    0    0
SMALL
NO_CHARGES


@<TRIPOS>ATOM
   1 C1            -0.0162     1.3436     0.0094 C.2     
   2 N2             0.0021    -0.0041     0.0020 N.am    
   3 O3             1.0275     1.9652     0.0028 O.2     
   4 O4            -1.1910     2.0007     0.0186 O.3     
   5 C5             3.5177    -0.6434    -0.0350 C.2     
   6 N6             2.3489    -0.0039    -0.0204 N.2     
   7 C7             1.2081    -0.6787    -0.0131 C.2     
   8 C8             1.2315    -2.0870    -0.0204 C.2     
   9 C9             2.4276    -2.7238    -0.0348 C.2     
  10 N10            3.5736    -1.9879    -0.0418 N.am    
  11 O11            4.5537     0.0004    -0.0466 O.2     
  12 O12            5.7056    -2.1903     1.0231 O.3     
  13 C13            4.8736    -2.6633    -0.0579 C.3     
  14 C14            5.6745    -2.2756    -1.3270 C.3     
  15 C15            7.1351    -2.5198    -0.8758 C.3     
  16 C16            7.0666    -2.4809     0.6632 C.3     
  17 F17            5.3387    -3.1054    -2.4021 F       
  18 F18            5.4712    -0.9307    -1.6541 F       
  19 C19            7.9913    -1.3854     1.1976 C.3     
  20 O20            7.9977    -1.4224     2.6261 O.3     
  21 P21            8.8650    -0.4072     3.5257 P.3     
  22 O22            8.6181     0.9820     3.0790 O.2     
  23 O23            8.4365    -0.5586     5.0702 O.3     
  24 C24            8.8634     0.4582     5.8645 C.ar    
  25 C25            8.0661     1.5786     6.0476 C.ar    
  26 C26            8.5023     2.6108     6.8555 C.ar    
  27 C27            9.7325     2.5279     7.4813 C.ar    
  28 C28           10.5292     1.4125     7.3000 C.ar    
  29 C29           10.0948     0.3749     6.4980 C.ar    
  30 N30           10.5006    -0.7676     3.3594 N.3     
  31 O31           12.0870    -3.2713     2.2452 O.3     
  32 C32           10.8044    -3.0789     2.6039 C.2     
  33 C33           10.7837    -2.1418     3.7943 C.3     
  34 C34           12.2059    -2.2361     4.3897 C.3     
  35 C35           12.9122    -3.2352     3.4485 C.3     
  36 O36            9.8374    -3.5678     2.0692 O.2     
  37 C37           12.9723    -4.6213     4.0934 C.3     
  38 C38           14.3212    -2.7430     3.1118 C.3     
  39 O39            7.5973    -3.8187    -1.3313 O.3     
  40 C40            8.2155    -3.8628    -2.5254 C.2     
  41 O41            8.3650    -2.8444    -3.1696 O.2     
  42 O42            8.6680    -5.0351    -3.0057 O.3     
  43 C43            9.3250    -5.0076    -4.3003 C.3     
  44 C44            9.7611    -6.4014    -4.6720 C.ar    
  45 C45            8.9081    -7.2266    -5.3808 C.ar    
  46 C46            9.3082    -8.5051    -5.7217 C.ar    
  47 C47           10.5614    -8.9583    -5.3543 C.ar    
  48 C48           11.4147    -8.1328    -4.6463 C.ar    
  49 C49           11.0163    -6.8527    -4.3091 C.ar    
  50 C50           -1.1347     3.4516     0.0262 C.3     
  51 C51           -2.5349     4.0086     0.0359 C.ar    
  52 C52           -3.1715     4.2576     1.2374 C.ar    
  53 C53           -4.4559     4.7685     1.2463 C.ar    
  54 C54           -5.1036     5.0308     0.0536 C.ar    
  55 C55           -4.4668     4.7827    -1.1480 C.ar    
  56 C56           -3.1807     4.2759    -1.1568 C.ar    
  57 H57           -0.8313    -0.5005     0.0073 H       
  58 H58            0.3103    -2.6507    -0.0143 H       
  59 H59            2.4716    -3.8028    -0.0403 H       
  60 H60            4.7463    -3.7443     0.0004 H       
  61 H61            7.7868    -1.7296    -1.2488 H       
  62 H62            7.3596    -3.4480     1.0718 H       
  63 H63            9.0025    -1.5499     0.8254 H       
  64 H64            7.6340    -0.4122     0.8609 H       
  65 H65            7.1053     1.6440     5.5588 H       
  66 H66            7.8821     3.4834     6.9981 H       
  67 H67           10.0717     3.3359     8.1125 H       
  68 H68           11.4900     1.3504     7.7893 H       
  69 H69           10.7153    -0.4983     6.3606 H       
  70 H70           10.8092    -0.6177     2.4105 H       
  71 H71           10.0422    -2.4694     4.5229 H       
  72 H72           12.7004    -1.2651     4.3620 H       
  73 H73           12.1724    -2.6237     5.4079 H       
  74 H74           13.4267    -5.3265     3.3974 H       
  75 H75           13.5701    -4.5729     5.0036 H       
  76 H76           11.9631    -4.9520     4.3386 H       
  77 H77           14.2623    -1.7503     2.6655 H       
  78 H78           14.9174    -2.6968     4.0232 H       
  79 H79           14.7878    -3.4311     2.4070 H       
  80 H80            8.6310    -4.6314    -5.0519 H       
  81 H81           10.1967    -4.3550    -4.2515 H       
  82 H82            7.9290    -6.8725    -5.6679 H       
  83 H83            8.6415    -9.1500    -6.2749 H       
  84 H84           10.8736    -9.9574    -5.6200 H       
  85 H85           12.3937    -8.4870    -4.3589 H       
  86 H86           11.6844    -6.2065    -3.7591 H       
  87 H87           -0.6029     3.7899     0.9155 H       
  88 H88           -0.6114     3.7996    -0.8644 H       
  89 H89           -2.6654     4.0526     2.1692 H       
  90 H90           -4.9535     4.9623     2.1850 H       
  91 H91           -6.1074     5.4293     0.0605 H       
  92 H92           -4.9730     4.9874    -2.0798 H       
  93 H93           -2.6817     4.0855    -2.0955 H       
@<TRIPOS>BOND
   1    1    2 am
   2    1    3 2
   3    1    4 1
   4    2    7 1
   5    2   57 1
   6    4   50 1
   7    5    6 1
   8    5   10 am
   9    5   11 2
  10    6    7 2
  11    7    8 1
  12    8    9 2
  13    8   58 1
  14    9   10 1
  15    9   59 1
  16   10   13 1
  17   12   13 1
  18   12   16 1
  19   13   14 1
  20   13   60 1
  21   14   15 1
  22   14   17 1
  23   14   18 1
  24   15   16 1
  25   15   39 1
  26   15   61 1
  27   16   19 1
  28   16   62 1
  29   19   20 1
  30   19   63 1
  31   19   64 1
  32   20   21 1
  33   21   22 2
  34   21   23 1
  35   21   30 1
  36   23   24 1
  37   24   25 ar
  38   24   29 ar
  39   25   26 ar
  40   25   65 1
  41   26   27 ar
  42   26   66 1
  43   27   28 ar
  44   27   67 1
  45   28   29 ar
  46   28   68 1
  47   29   69 1
  48   30   33 1
  49   30   70 1
  50   31   32 1
  51   31   35 1
  52   32   33 1
  53   32   36 2
  54   33   34 1
  55   33   71 1
  56   34   35 1
  57   34   72 1
  58   34   73 1
  59   35   37 1
  60   35   38 1
  61   37   74 1
  62   37   75 1
  63   37   76 1
  64   38   77 1
  65   38   78 1
  66   38   79 1
  67   39   40 1
  68   40   41 2
  69   40   42 1
  70   42   43 1
  71   43   44 1
  72   43   80 1
  73   43   81 1
  74   44   45 ar
  75   44   49 ar
  76   45   46 ar
  77   45   82 1
  78   46   47 ar
  79   46   83 1
  80   47   48 ar
  81   47   84 1
  82   48   49 ar
  83   48   85 1
  84   49   86 1
  85   50   51 1
  86   50   87 1
  87   50   88 1
  88   51   52 ar
  89   51   56 ar
  90   52   53 ar
  91   52   89 1
  92   53   54 ar
  93   53   90 1
  94   54   55 ar
  95   54   91 1
  96   55   56 ar
  97   55   92 1
  98   56   93 1

#	End of record

