#	Name: ASD02770033
#	Creating user name:	WinNT
#	Creation time:	15. 06. 2019 20:26

#	Modifying user name:	WinNT
#	Modification time:	15. 06. 2019 20:26

#	Program:	/corina/corina34_cracker 3.40 0067  02.08.2006

@<TRIPOS>MOLECULE
ASD02770033
  43   44    0    0    0
SMALL
NO_CHARGES


@<TRIPOS>ATOM
   1 C1            -0.0165     1.3669     0.0096 C.2     
   2 C2             0.0021    -0.0041     0.0020 C.2     
   3 C3             1.3428    -0.5464    -0.0137 C.2     
   4 C4             2.2831     0.3877    -0.0177 C.2     
   5 S5             1.5697     1.9906    -0.0022 S.3     
   6 C6            -1.2079    -0.8319     0.0099 C.2     
   7 O7            -1.7206    -1.1702    -1.0408 O.2     
   8 N8            -1.7525    -1.2182     1.1806 N.am    
   9 C9             3.7644     0.1106    -0.0333 C.3     
  10 C10            1.6405    -2.0237    -0.0240 C.3     
  11 C11           -2.9616    -2.0454     1.1885 C.3     
  12 C12           -3.3681    -2.3406     2.6337 C.3     
  13 C13           -4.6309    -3.2045     2.6419 C.3     
  14 O14           -5.0106    -3.4803     3.9916 O.3     
  15 N15           -1.1667     2.1392     0.0194 N.am    
  16 C16           -1.0755     3.4839     0.0263 C.2     
  17 C17           -2.3025     4.3077     0.0368 C.ar    
  18 C18           -2.2115     5.7008     0.0439 C.ar    
  19 C19           -3.3608     6.4638     0.0538 C.ar    
  20 C20           -4.6015     5.8514     0.0566 C.ar    
  21 C21           -4.6987     4.4712     0.0500 C.ar    
  22 C22           -3.5575     3.6963     0.0339 C.ar    
  23 O23            0.0159     4.0191     0.0238 O.2     
  24 H24           -1.3439    -0.9486     2.0180 H       
  25 H25            4.1117     0.0493    -1.0647 H       
  26 H26            4.2901     0.9158     0.4799 H       
  27 H27            3.9627    -0.8338     0.4736 H       
  28 H28            1.7023    -2.3747    -1.0541 H       
  29 H29            2.5896    -2.2067     0.4797 H       
  30 H30            0.8448    -2.5583     0.4949 H       
  31 H31           -3.7690    -1.5135     0.6853 H       
  32 H32           -2.7641    -2.9825     0.6680 H       
  33 H33           -2.5607    -2.8726     3.1368 H       
  34 H34           -3.5656    -1.4035     3.1542 H       
  35 H35           -5.4383    -2.6726     2.1387 H       
  36 H36           -4.4334    -4.1416     2.1214 H       
  37 H37           -5.8054    -4.0249     4.0732 H       
  38 H38           -2.0376     1.7122     0.0214 H       
  39 H39           -1.2437     6.1800     0.0421 H       
  40 H40           -3.2919     7.5416     0.0596 H       
  41 H41           -5.4981     6.4534     0.0643 H       
  42 H42           -5.6703     3.9995     0.0530 H       
  43 H43           -3.6348     2.6191     0.0239 H       
@<TRIPOS>BOND
   1    1    2 2
   2    1    5 1
   3    1   15 1
   4    2    3 1
   5    2    6 1
   6    3    4 2
   7    3   10 1
   8    4    5 1
   9    4    9 1
  10    6    7 2
  11    6    8 am
  12    8   11 1
  13    8   24 1
  14    9   25 1
  15    9   26 1
  16    9   27 1
  17   10   28 1
  18   10   29 1
  19   10   30 1
  20   11   12 1
  21   11   31 1
  22   11   32 1
  23   12   13 1
  24   12   33 1
  25   12   34 1
  26   13   14 1
  27   13   35 1
  28   13   36 1
  29   14   37 1
  30   15   16 am
  31   15   38 1
  32   16   17 1
  33   16   23 2
  34   17   18 ar
  35   17   22 ar
  36   18   19 ar
  37   18   39 1
  38   19   20 ar
  39   19   40 1
  40   20   21 ar
  41   20   41 1
  42   21   22 ar
  43   21   42 1
  44   22   43 1

#	End of record

