#	Name: ASD01028145
#	Creating user name:	WinNT
#	Creation time:	15. 06. 2019 18:56

#	Modifying user name:	WinNT
#	Modification time:	15. 06. 2019 18:56

#	Program:	/corina/corina34_cracker 3.40 0067  02.08.2006

@<TRIPOS>MOLECULE
ASD01028145
  40   43    0    0    0
SMALL
NO_CHARGES


@<TRIPOS>ATOM
   1 C1            -0.0153     1.3187    -0.0060 C.ar    
   2 N2             0.0039    -0.0027    -0.0176 N.ar    
   3 N3             1.0851    -0.6889    -0.0456 N.ar    
   4 C4             2.2836    -0.1531    -0.0657 C.ar    
   5 C5             2.4069     1.2489    -0.0564 C.ar    
   6 C6             3.6467     1.9005    -0.0759 C.ar    
   7 C7             3.6865     3.2632    -0.0649 C.ar    
   8 C8             2.5149     4.0160    -0.0346 C.ar    
   9 C9             1.2916     3.4132    -0.0150 C.ar    
  10 C10            1.2140     2.0168    -0.0255 C.ar    
  11 N11           -1.2177     2.0070     0.0187 N.pl3   
  12 C12            3.5106    -1.0275    -0.0978 C.3     
  13 C13            5.0863    -0.7579    -3.5210 C.ar    
  14 C14            4.7607    -0.4692    -2.2092 C.ar    
  15 C15            3.8906    -1.3074    -1.5290 C.ar    
  16 C16            3.3788    -2.4096    -2.1966 C.ar    
  17 C17            3.7503    -2.6345    -3.5086 C.ar    
  18 N18            4.5802    -1.8155    -4.1246 N.ar    
  19 C19           -2.4248     1.3094    -0.0848 C.ar    
  20 C20           -3.5476     1.7560     0.6003 C.ar    
  21 C21           -4.7388     1.0651     0.4958 C.ar    
  22 C22           -4.8145    -0.0711    -0.2906 C.ar    
  23 C23           -3.6974    -0.5186    -0.9739 C.ar    
  24 C24           -2.5051     0.1716    -0.8776 C.ar    
  25 Cl25          -6.3136    -0.9370    -0.4197 Cl      
  26 H26            4.5626     1.3287    -0.0991 H       
  27 H27            4.6416     3.7671    -0.0795 H       
  28 H28            2.5762     5.0942    -0.0261 H       
  29 H29            0.3910     4.0088     0.0085 H       
  30 H30           -1.2219     2.9729     0.1080 H       
  31 H31            4.3333    -0.5176     0.4035 H       
  32 H32            3.3005    -1.9673     0.4129 H       
  33 H33            5.7598    -0.1075    -4.0593 H       
  34 H34            5.1787     0.3983    -1.7203 H       
  35 H35            2.6988    -3.0840    -1.6975 H       
  36 H36            3.3561    -3.4908    -4.0357 H       
  37 H37           -3.4890     2.6424     1.2144 H       
  38 H38           -5.6120     1.4117     1.0285 H       
  39 H39           -3.7591    -1.4060    -1.5864 H       
  40 H40           -1.6347    -0.1755    -1.4146 H       
@<TRIPOS>BOND
   1    1    2 ar
   2    1   10 ar
   3    1   11 1
   4    2    3 ar
   5    3    4 ar
   6    4    5 ar
   7    4   12 1
   8    5    6 ar
   9    5   10 ar
  10    6    7 ar
  11    6   26 1
  12    7    8 ar
  13    7   27 1
  14    8    9 ar
  15    8   28 1
  16    9   10 ar
  17    9   29 1
  18   11   19 1
  19   11   30 1
  20   12   15 1
  21   12   31 1
  22   12   32 1
  23   13   14 ar
  24   13   18 ar
  25   13   33 1
  26   14   15 ar
  27   14   34 1
  28   15   16 ar
  29   16   17 ar
  30   16   35 1
  31   17   18 ar
  32   17   36 1
  33   19   20 ar
  34   19   24 ar
  35   20   21 ar
  36   20   37 1
  37   21   22 ar
  38   21   38 1
  39   22   23 ar
  40   22   25 1
  41   23   24 ar
  42   23   39 1
  43   24   40 1

#	End of record

