#	Name: ASD01901582
#	Creating user name:	WinNT
#	Creation time:	15. 06. 2019 19:54

#	Modifying user name:	WinNT
#	Modification time:	15. 06. 2019 19:54

#	Program:	/corina/corina34_cracker 3.40 0067  02.08.2006

@<TRIPOS>MOLECULE
ASD01901582
  56   60    0    0    0
SMALL
NO_CHARGES


@<TRIPOS>ATOM
   1 C1            -0.0178     1.4595     0.0101 C.3     
   2 N2             0.0021    -0.0041     0.0020 N.am    
   3 C3             0.0126    -0.6269    -1.1946 C.2     
   4 O4             0.1371     0.0444    -2.2006 O.2     
   5 N5            -0.1319    -1.9559    -1.3077 N.am    
   6 C6            -0.4559    -2.7080    -0.2387 C.2     
   7 O7            -0.4403    -3.9160    -0.3127 O.2     
   8 C8            -0.8570    -2.0264     1.0444 C.3     
   9 C9             0.0243    -0.7777     1.2392 C.3     
  10 C10           -0.5268     0.0010     2.4280 C.3     
  11 C11            0.5243     0.8556     3.1263 C.3     
  12 C12            1.5786    -0.0451     3.7867 C.3     
  13 C13            2.1469    -0.9211     2.6955 C.2     
  14 N14            3.3066    -1.5036     2.6438 N.2     
  15 N15            3.3908    -2.1941     1.4257 N.pl3   
  16 C16            4.5367    -2.9760     0.9553 C.3     
  17 C17            2.2265    -2.0120     0.7630 C.2     
  18 C18            1.4306    -1.2409     1.5299 C.2     
  19 C19            0.0511    -2.5703    -2.5551 C.ar    
  20 C20           -1.0286    -2.7209    -3.4195 C.ar    
  21 F21           -2.2510    -2.2749    -3.0562 F       
  22 C22           -0.8523    -3.3249    -4.6477 C.ar    
  23 C23            0.4130    -3.7856    -5.0228 C.ar    
  24 C24            1.4955    -3.6325    -4.1518 C.ar    
  25 C25            1.3129    -3.0225    -2.9275 C.ar    
  26 F26            2.3597    -2.8692    -2.0873 F       
  27 C27            0.5998    -4.4133    -6.2963 C.1     
  28 C28            0.7529    -4.9279    -7.3404 C.1     
  29 C29            0.9396    -5.5556    -8.6138 C.ar    
  30 C30           -0.1403    -5.7047    -9.4882 C.ar    
  31 C31            0.0471    -6.3103   -10.7130 C.ar    
  32 C32            1.3007    -6.7697   -11.0770 C.ar    
  33 C33            2.3747    -6.6259   -10.2162 C.ar    
  34 C34            2.2038    -6.0168    -8.9907 C.ar    
  35 H35            1.0048     1.8368     0.0023 H       
  36 H36           -0.5450     1.8206    -0.8730 H       
  37 H37           -0.5280     1.8110     0.9069 H       
  38 H38           -1.8991    -1.7198     0.9909 H       
  39 H39           -0.7065    -2.7010     1.8842 H       
  40 H40           -1.3678     0.6250     2.1191 H       
  41 H41           -0.9239    -0.7212     3.1606 H       
  42 H42            1.0182     1.5192     2.4207 H       
  43 H43            0.0435     1.4605     3.9006 H       
  44 H44            2.3675     0.5669     4.2188 H       
  45 H45            1.1129    -0.6599     4.5530 H       
  46 H46            4.4329    -4.0089     1.2878 H       
  47 H47            4.5741    -2.9469    -0.1337 H       
  48 H48            5.4559    -2.5541     1.3618 H       
  49 H49            1.9833    -2.4139    -0.2089 H       
  50 H50           -1.6909    -3.4418    -5.3180 H       
  51 H51            2.4744    -3.9876    -4.4382 H       
  52 H52           -1.1193    -5.3470    -9.2053 H       
  53 H53           -0.7866    -6.4267   -11.3896 H       
  54 H54            1.4415    -7.2431   -12.0374 H       
  55 H55            3.3501    -6.9872   -10.5068 H       
  56 H56            3.0439    -5.9006    -8.3220 H       
@<TRIPOS>BOND
   1    1    2 1
   2    1   35 1
   3    1   36 1
   4    1   37 1
   5    2    9 1
   6    2    3 am
   7    3    4 2
   8    3    5 am
   9    5    6 am
  10    5   19 1
  11    6    7 2
  12    6    8 1
  13    8    9 1
  14    8   38 1
  15    8   39 1
  16    9   18 1
  17    9   10 1
  18   10   11 1
  19   10   40 1
  20   10   41 1
  21   11   12 1
  22   11   42 1
  23   11   43 1
  24   12   13 1
  25   12   44 1
  26   12   45 1
  27   13   18 1
  28   13   14 2
  29   14   15 1
  30   15   16 1
  31   15   17 1
  32   16   46 1
  33   16   47 1
  34   16   48 1
  35   17   18 2
  36   17   49 1
  37   19   25 ar
  38   19   20 ar
  39   20   21 1
  40   20   22 ar
  41   22   23 ar
  42   22   50 1
  43   23   24 ar
  44   23   27 1
  45   24   25 ar
  46   24   51 1
  47   25   26 1
  48   27   28 3
  49   28   29 1
  50   29   34 ar
  51   29   30 ar
  52   30   31 ar
  53   30   52 1
  54   31   32 ar
  55   31   53 1
  56   32   33 ar
  57   32   54 1
  58   33   34 ar
  59   33   55 1
  60   34   56 1

#	End of record

