#	Name: ASD01310013
#	Creating user name:	WinNT
#	Creation time:	15. 06. 2019 19:15

#	Modifying user name:	WinNT
#	Modification time:	15. 06. 2019 19:15

#	Program:	/corina/corina34_cracker 3.40 0067  02.08.2006

@<TRIPOS>MOLECULE
ASD01310013
  46   50    0    0    0
SMALL
NO_CHARGES


@<TRIPOS>ATOM
   1 N1            -0.0181     1.4829     0.0102 N.3     
   2 C2             0.0021    -0.0041     0.0020 C.3     
   3 C3             0.4351    -0.4460    -1.4050 C.3     
   4 C4             1.8680     0.0326    -1.6560 C.3     
   5 C5             1.9598     1.5411    -1.4089 C.3     
   6 C6             1.4234     1.8484    -0.0016 C.3     
   7 C7             2.0765     0.8501     0.9818 C.3     
   8 C8             1.1373    -0.3740     0.9842 C.3     
   9 O9             2.7731    -0.6601    -0.7564 O.3     
  10 C10            4.0261    -0.8655    -1.1918 C.2     
  11 O11            4.3557    -0.4794    -2.2882 O.2     
  12 C12            5.0218    -1.5779    -0.3130 C.3     
  13 C13            3.0172    -4.3319     1.3014 C.ar    
  14 C14            3.5118    -3.0821     0.9811 C.ar    
  15 C15            4.4984    -2.9483     0.0201 C.ar    
  16 C16            4.9917    -4.0717    -0.6230 C.ar    
  17 C17            4.4933    -5.3280    -0.2968 C.ar    
  18 C18            3.5090    -5.4552     0.6624 C.ar    
  19 C19            6.3388    -1.6758    -1.0337 C.ar    
  20 C20            7.1583    -0.5630    -1.1029 C.ar    
  21 C21            8.3710    -0.6316    -1.7616 C.ar    
  22 C22            8.7700    -1.8151    -2.3550 C.ar    
  23 C23            7.9573    -2.9288    -2.2882 C.ar    
  24 C24            6.7369    -2.8634    -1.6253 C.ar    
  25 O25            5.9549    -3.9679    -1.5696 O.3     
  26 H26           -0.4890     1.8427    -0.8064 H       
  27 H27           -0.9588    -0.4312     0.2889 H       
  28 H28            0.3960    -1.5331    -1.4744 H       
  29 H29           -0.2317    -0.0069    -2.1470 H       
  30 H30            2.1471    -0.1835    -2.6872 H       
  31 H31            2.9995     1.8603    -1.4811 H       
  32 H32            1.3615     2.0697    -2.1511 H       
  33 H33            1.5877     2.8878     0.2825 H       
  34 H34            3.0687     0.5662     0.6310 H       
  35 H35            2.1360     1.2845     1.9797 H       
  36 H36            0.7349    -0.5414     1.9833 H       
  37 H37            1.6677    -1.2598     0.6346 H       
  38 H38            5.1576    -1.0117     0.6085 H       
  39 H39            2.2468    -4.4316     2.0518 H       
  40 H40            3.1261    -2.2064     1.4818 H       
  41 H41            4.8768    -6.2060    -0.7952 H       
  42 H42            3.1232    -6.4321     0.9141 H       
  43 H43            6.8487     0.3627    -0.6407 H       
  44 H44            9.0073     0.2395    -1.8132 H       
  45 H45            9.7173    -1.8679    -2.8710 H       
  46 H46            8.2701    -3.8527    -2.7518 H       
@<TRIPOS>BOND
   1    1    2 1
   2    1    6 1
   3    1   26 1
   4    2    3 1
   5    2    8 1
   6    2   27 1
   7    3    4 1
   8    3   28 1
   9    3   29 1
  10    4    5 1
  11    4    9 1
  12    4   30 1
  13    5    6 1
  14    5   31 1
  15    5   32 1
  16    6    7 1
  17    6   33 1
  18    7    8 1
  19    7   34 1
  20    7   35 1
  21    8   36 1
  22    8   37 1
  23    9   10 1
  24   10   11 2
  25   10   12 1
  26   12   19 1
  27   12   15 1
  28   12   38 1
  29   13   14 ar
  30   13   18 ar
  31   13   39 1
  32   14   15 ar
  33   14   40 1
  34   15   16 ar
  35   16   17 ar
  36   16   25 1
  37   17   18 ar
  38   17   41 1
  39   18   42 1
  40   19   20 ar
  41   19   24 ar
  42   20   21 ar
  43   20   43 1
  44   21   22 ar
  45   21   44 1
  46   22   23 ar
  47   22   45 1
  48   23   24 ar
  49   23   46 1
  50   24   25 1

#	End of record

