#	Name: ASD08150579
#	Creating user name:	WinNT
#	Creation time:	15. 06. 2019 21:16

#	Modifying user name:	WinNT
#	Modification time:	15. 06. 2019 21:16

#	Program:	/corina/corina34_cracker 3.40 0067  02.08.2006

@<TRIPOS>MOLECULE
ASD08150579
  51   56    0    0    0
SMALL
NO_CHARGES


@<TRIPOS>ATOM
   1 N1             0.0752     1.3951     2.0171 N.am    
   2 C2             0.1653     0.1361     2.4880 C.2     
   3 C3             1.3847    -0.5696     2.4385 C.2     
   4 C4             2.4912     0.0147     1.9126 C.2     
   5 C5             2.4000     1.3392     1.4162 C.ar    
   6 C6             3.5171     1.9910     0.8598 C.ar    
   7 N7             3.4301     3.2125     0.4018 N.ar    
   8 C8             2.2850     3.9109     0.4336 C.ar    
   9 C9             1.1102     3.3341     0.9760 C.ar    
  10 C10            1.1709     2.0136     1.4801 C.ar    
  11 C11           -0.0929     5.3612     0.5009 C.ar    
  12 C12            1.0737     5.9254    -0.0342 C.ar    
  13 C13            2.2367     5.2215    -0.0693 C.ar    
  14 O14           -0.8210    -0.4000     2.9637 O.2     
  15 C15           -1.1491     2.0728     2.0723 C.ar    
  16 C16           -2.0594     1.9497     1.0311 C.ar    
  17 C17           -3.2663     2.6189     1.0876 C.ar    
  18 C18           -3.5685     3.4126     2.1813 C.ar    
  19 C19           -2.6616     3.5370     3.2208 C.ar    
  20 C20           -1.4568     2.8644     3.1713 C.ar    
  21 C21           -0.0779     4.0706     1.0049 C.ar    
  22 C22           -1.3489     6.1495     0.5277 C.ar    
  23 C23           -2.5834     5.5213     0.2962 C.ar    
  24 F24           -4.7494     4.0667     2.2344 F       
  25 N25           -3.7071     6.1917     0.3137 N.ar    
  26 C26           -3.7363     7.5074     0.5527 C.ar    
  27 C27           -2.5315     8.2134     0.7958 C.ar    
  28 C28           -1.3134     7.5116     0.7873 C.ar    
  29 C29           -4.9535     8.2106     0.5668 C.ar    
  30 C30           -4.9585     9.5493     0.8119 C.ar    
  31 C31           -3.7728    10.2415     1.0508 C.ar    
  32 C32           -2.5744     9.5957     1.0449 C.ar    
  33 C33           -1.7306     1.0869    -0.1599 C.3     
  34 F34           -2.7940     1.1213    -1.0684 F       
  35 F35           -0.5724     1.5687    -0.7792 F       
  36 F36           -1.5203    -0.2302     0.2622 F       
  37 H37            1.4387    -1.5783     2.8207 H       
  38 H38            3.4277    -0.5217     1.8732 H       
  39 H39            4.4633     1.4726     0.8107 H       
  40 H40            1.0482     6.9322    -0.4242 H       
  41 H41            3.1261     5.6718    -0.4849 H       
  42 H42           -3.9747     2.5235     0.2779 H       
  43 H43           -2.8989     4.1571     4.0726 H       
  44 H44           -0.7501     2.9614     3.9822 H       
  45 H45           -0.9771     3.6368     1.4167 H       
  46 H46           -2.6059     4.4597     0.0986 H       
  47 H47           -0.3776     8.0192     0.9688 H       
  48 H48           -5.8818     7.6901     0.3834 H       
  49 H49           -5.8968    10.0840     0.8212 H       
  50 H50           -3.8050    11.3039     1.2423 H       
  51 H51           -1.6620    10.1425     1.2313 H       
@<TRIPOS>BOND
   1    1    2 am
   2    1   10 1
   3    1   15 1
   4    2    3 1
   5    2   14 2
   6    3    4 2
   7    3   37 1
   8    4    5 1
   9    4   38 1
  10    5    6 ar
  11    5   10 ar
  12    6    7 ar
  13    6   39 1
  14    7    8 ar
  15    8    9 ar
  16    8   13 ar
  17    9   10 ar
  18    9   21 ar
  19   11   12 ar
  20   11   22 1
  21   11   21 ar
  22   12   13 ar
  23   12   40 1
  24   13   41 1
  25   15   16 ar
  26   15   20 ar
  27   16   17 ar
  28   16   33 1
  29   17   18 ar
  30   17   42 1
  31   18   19 ar
  32   18   24 1
  33   19   20 ar
  34   19   43 1
  35   20   44 1
  36   21   45 1
  37   22   23 ar
  38   22   28 ar
  39   23   25 ar
  40   23   46 1
  41   25   26 ar
  42   26   27 ar
  43   26   29 ar
  44   27   28 ar
  45   27   32 ar
  46   28   47 1
  47   29   30 ar
  48   29   48 1
  49   30   31 ar
  50   30   49 1
  51   31   32 ar
  52   31   50 1
  53   32   51 1
  54   33   34 1
  55   33   35 1
  56   33   36 1

#	End of record

