#	Name: ASD01917371
#	Creating user name:	WinNT
#	Creation time:	15. 06. 2019 20:09

#	Modifying user name:	WinNT
#	Modification time:	15. 06. 2019 20:09

#	Program:	/corina/corina34_cracker 3.40 0067  02.08.2006

@<TRIPOS>MOLECULE
ASD01917371
  51   55    0    0    0
SMALL
NO_CHARGES


@<TRIPOS>ATOM
   1 C1            -0.0171     1.4103     0.0098 C.ar    
   2 C2             0.0021    -0.0041     0.0020 C.ar    
   3 C3            -1.1920    -0.7247     0.0415 C.ar    
   4 C4            -2.3839    -0.0615     0.0742 C.ar    
   5 C5            -2.4200     1.3393     0.0664 C.ar    
   6 C6            -1.2408     2.0762     0.0357 C.ar    
   7 N7             1.1599     2.0757     0.0021 N.2     
   8 C8             2.3196     1.4677    -0.0397 C.2     
   9 N9             2.4193     0.1195    -0.1575 N.am    
  10 C10            1.3094    -0.6627    -0.0625 C.2     
  11 O11            1.4004    -1.8764    -0.0315 O.2     
  12 C12           -3.7227     2.0398     0.0904 C.2     
  13 C13            3.5358     2.3447     0.1019 C.3     
  14 C14            4.7920     1.6917    -0.4308 C.3     
  15 C15            4.8959     0.2352    -0.0270 C.3     
  16 C16            3.6786    -0.5624    -0.4368 C.3     
  17 C17            6.1340    -0.3753    -0.6868 C.3     
  18 C18            5.0548     0.1520     1.4924 C.3     
  19 N19           -3.9381     3.4145     0.0862 N.pl3   
  20 C20           -5.2870     3.6127     0.1145 C.2     
  21 N21           -5.8758     2.5234     0.1345 N.3     
  22 C22           -4.9468     1.4801     0.1150 C.2     
  23 C23           -6.6532     2.4374     1.2932 C.ar    
  24 N24           -7.2679     1.3075     1.5831 N.ar    
  25 C25           -8.0115     1.1803     2.6649 C.ar    
  26 C26           -8.1735     2.2377     3.5397 C.ar    
  27 C27           -7.5423     3.4422     3.2681 C.ar    
  28 C28           -6.7641     3.5361     2.1247 C.ar    
  29 H29           -1.1728    -1.8046     0.0457 H       
  30 H30           -3.3072    -0.6208     0.1061 H       
  31 H31           -1.2733     3.1557     0.0321 H       
  32 H32            3.3648     3.2740    -0.4414 H       
  33 H33            3.6807     2.5778     1.1568 H       
  34 H34            4.7909     1.7578    -1.5188 H       
  35 H35            5.6597     2.2279    -0.0466 H       
  36 H36            3.6875    -1.5128     0.0969 H       
  37 H37            3.7370    -0.7646    -1.5063 H       
  38 H38            7.0233     0.1624    -0.3580 H       
  39 H39            6.2175    -1.4241    -0.4020 H       
  40 H40            6.0432    -0.2991    -1.7703 H       
  41 H41            4.1890     0.6069     1.9738 H       
  42 H42            5.1304    -0.8930     1.7932 H       
  43 H43            5.9581     0.6828     1.7929 H       
  44 H44           -3.2557     4.1036     0.0670 H       
  45 H45           -5.7709     4.5782     0.1191 H       
  46 H46           -6.4731     2.4506    -0.6754 H       
  47 H47           -5.1688     0.4232     0.1254 H       
  48 H48           -8.4998     0.2389     2.8693 H       
  49 H49           -8.7843     2.1275     4.4235 H       
  50 H50           -7.6512     4.2858     3.9336 H       
  51 H51           -6.2577     4.4587     1.8821 H       
@<TRIPOS>BOND
   1    1    2 ar
   2    1    7 1
   3    1    6 ar
   4    2    3 ar
   5    2   10 1
   6    3    4 ar
   7    3   29 1
   8    4    5 ar
   9    4   30 1
  10    5    6 ar
  11    5   12 1
  12    6   31 1
  13    7    8 2
  14    8    9 1
  15    8   13 1
  16    9   10 am
  17    9   16 1
  18   10   11 2
  19   12   19 1
  20   12   22 2
  21   13   14 1
  22   13   32 1
  23   13   33 1
  24   14   15 1
  25   14   34 1
  26   14   35 1
  27   15   16 1
  28   15   17 1
  29   15   18 1
  30   16   36 1
  31   16   37 1
  32   17   38 1
  33   17   39 1
  34   17   40 1
  35   18   41 1
  36   18   42 1
  37   18   43 1
  38   19   20 1
  39   19   44 1
  40   20   21 2
  41   20   45 1
  42   21   22 1
  43   21   23 1
  44   21   46 1
  45   22   47 1
  46   23   24 ar
  47   23   28 ar
  48   24   25 ar
  49   25   26 ar
  50   25   48 1
  51   26   27 ar
  52   26   49 1
  53   27   28 ar
  54   27   50 1
  55   28   51 1

#	End of record

