#	Name: ASD03730015
#	Creating user name:	WinNT
#	Creation time:	15. 06. 2019 20:43

#	Modifying user name:	WinNT
#	Modification time:	15. 06. 2019 20:43

#	Program:	/corina/corina34_cracker 3.40 0067  02.08.2006

@<TRIPOS>MOLECULE
ASD03730015
  44   47    0    0    0
SMALL
NO_CHARGES


@<TRIPOS>ATOM
   1 O1            -0.0175     1.4361     0.0099 O.3     
   2 C2             0.0021    -0.0041     0.0020 C.3     
   3 C3             1.3450    -0.3159    -0.6728 C.3     
   4 C4             2.1584     0.9229    -0.4103 C.ar    
   5 C5             1.2621     1.9059     0.0002 C.ar    
   6 C6             1.7500     3.1673     0.3281 C.ar    
   7 C7             3.0995     3.4388     0.2366 C.ar    
   8 C8             3.9817     2.4576    -0.1823 C.ar    
   9 C9             3.5052     1.1974    -0.5042 C.ar    
  10 N10            2.1547    -2.4043    -1.1281 N.am    
  11 C11            1.9840    -1.5486    -0.1007 C.2     
  12 C12            1.1845    -0.5944    -2.1378 C.ar    
  13 C13            0.6726     0.1270    -3.1931 C.ar    
  14 C14            0.6628    -0.4175    -4.4650 C.ar    
  15 C15            1.1680    -1.6879    -4.6738 C.ar    
  16 C16            1.6818    -2.4146    -3.6201 C.ar    
  17 C17            1.6960    -1.8743    -2.3365 C.ar    
  18 O18            2.2870    -1.7372     1.0584 O.2     
  19 C19            2.7523    -3.7351    -0.9933 C.3     
  20 C20            1.6549    -4.7592    -0.6969 C.3     
  21 C21            2.2790    -6.1490    -0.5561 C.3     
  22 C22            1.1817    -7.1732    -0.2596 C.3     
  23 C23            1.8057    -8.5630    -0.1188 C.3     
  24 F24            5.3021     2.7277    -0.2756 F       
  25 H25           -0.0206    -0.3969     1.0185 H       
  26 H26           -0.8270    -0.3990    -0.5852 H       
  27 H27            1.0682     3.9382     0.6557 H       
  28 H28            3.4692     4.4208     0.4924 H       
  29 H29            4.1905     0.4290    -0.8304 H       
  30 H30            0.2780     1.1186    -3.0278 H       
  31 H31            0.2612     0.1481    -5.2927 H       
  32 H32            1.1599    -2.1130    -5.6666 H       
  33 H33            2.0745    -3.4060    -3.7910 H       
  34 H34            3.2575    -4.0022    -1.9215 H       
  35 H35            3.4735    -3.7284    -0.1760 H       
  36 H36            1.1498    -4.4920     0.2313 H       
  37 H37            0.9338    -4.7658    -1.5142 H       
  38 H38            2.7842    -6.4162    -1.4842 H       
  39 H39            3.0002    -6.1424     0.2612 H       
  40 H40            0.6765    -6.9060     0.6686 H       
  41 H41            0.4605    -7.1798    -1.0769 H       
  42 H42            2.3109    -8.8302    -1.0470 H       
  43 H43            2.5269    -8.5563     0.6985 H       
  44 H44            1.0240    -9.2926     0.0924 H       
@<TRIPOS>BOND
   1    1    2 1
   2    1    5 1
   3    2    3 1
   4    2   25 1
   5    2   26 1
   6    3    4 1
   7    3   11 1
   8    3   12 1
   9    4    5 ar
  10    4    9 ar
  11    5    6 ar
  12    6    7 ar
  13    6   27 1
  14    7    8 ar
  15    7   28 1
  16    8    9 ar
  17    8   24 1
  18    9   29 1
  19   10   11 am
  20   10   17 1
  21   10   19 1
  22   11   18 2
  23   12   13 ar
  24   12   17 ar
  25   13   14 ar
  26   13   30 1
  27   14   15 ar
  28   14   31 1
  29   15   16 ar
  30   15   32 1
  31   16   17 ar
  32   16   33 1
  33   19   20 1
  34   19   34 1
  35   19   35 1
  36   20   21 1
  37   20   36 1
  38   20   37 1
  39   21   22 1
  40   21   38 1
  41   21   39 1
  42   22   23 1
  43   22   40 1
  44   22   41 1
  45   23   42 1
  46   23   43 1
  47   23   44 1

#	End of record

