#	Name: ASD07330021
#	Creating user name:	WinNT
#	Creation time:	15. 06. 2019 21:11

#	Modifying user name:	WinNT
#	Modification time:	15. 06. 2019 21:11

#	Program:	/corina/corina34_cracker 3.40 0067  02.08.2006

@<TRIPOS>MOLECULE
ASD07330021
  74   78    0    0    0
SMALL
NO_CHARGES


@<TRIPOS>ATOM
   1 C1             1.1070    -1.8806     0.8424 C.ar    
   2 C2             1.9387    -0.7927     0.6223 C.ar    
   3 N3             3.2271    -0.8413     0.8872 N.ar    
   4 C4             3.7931    -1.9387     1.3798 C.ar    
   5 C5             3.0038    -3.0845     1.6288 C.ar    
   6 C6             1.6366    -3.0522     1.3541 C.ar    
   7 N7             5.1201    -1.9900     1.6525 N.2     
   8 C8             5.6775    -3.0601     2.1336 C.2     
   9 N9             4.9953    -4.2039     2.4025 N.am    
  10 C10            3.6631    -4.2789     2.1729 C.2     
  11 O11            3.0366    -5.2956     2.4085 O.2     
  12 C12            5.6757    -5.3146     2.9209 C.ar    
  13 C13            5.6407    -5.5765     4.2840 C.ar    
  14 C14            6.3106    -6.6707     4.7939 C.ar    
  15 C15            7.0187    -7.5086     3.9445 C.ar    
  16 C16            7.0541    -7.2475     2.5823 C.ar    
  17 C17            6.3802    -6.1565     2.0706 C.ar    
  18 C18            7.1592    -3.0316     2.4074 C.3     
  19 C19            7.9009    -2.5668     1.1526 C.3     
  20 N20            7.4345    -2.1054     3.5086 N.am    
  21 C21            7.4041    -0.6595     3.2747 C.3     
  22 C22            8.7332    -0.2119     2.7232 C.ar    
  23 C23            8.7920     0.8449     1.8344 C.ar    
  24 C24            7.7157    -2.5836     4.7369 C.2     
  25 C25            8.0848    -1.6351     5.8484 C.3     
  26 O26            7.6718    -3.7771     4.9478 O.2     
  27 C27            8.2820    -2.4104     7.1255 C.ar    
  28 C28            9.5320    -2.9068     7.4463 C.ar    
  29 C29            7.2144    -2.6197     7.9782 C.ar    
  30 C30            7.3942    -3.3302     9.1501 C.ar    
  31 C31            8.6441    -3.8323     9.4697 C.ar    
  32 C32            9.7141    -3.6174     8.6173 C.ar    
  33 F33            8.8210    -4.5269    10.6149 F       
  34 C34           10.0114     1.2556     1.3285 C.ar    
  35 C35           11.1716     0.6097     1.7119 C.ar    
  36 C36           11.1128    -0.4468     2.6017 C.ar    
  37 C37            9.8943    -0.8546     3.1109 C.ar    
  38 N38            7.5495     1.5366     1.4237 N.pl3   
  39 O39            7.5332     2.7503     1.3224 O.2     
  40 O40            6.5434     0.8922     1.1871 O.2     
  41 C41           11.0752    -4.1637     8.9635 C.3     
  42 F42           11.9852    -3.8203     7.9580 F       
  43 F43           11.4994    -3.6214    10.1814 F       
  44 F44           11.0047    -5.5567     9.0727 F       
  45 O45            7.6785    -8.5856     4.4472 O.3     
  46 C46            9.0613   -10.5589     4.2608 C.3     
  47 C47            8.3871    -9.4053     3.5155 C.3     
  48 H48            0.0523    -1.8124     0.6202 H       
  49 H49            1.5181     0.1183     0.2228 H       
  50 H50            1.0112    -3.9138     1.5356 H       
  51 H51            5.0898    -4.9241     4.9454 H       
  52 H52            6.2837    -6.8743     5.8542 H       
  53 H53            7.6058    -7.8998     1.9217 H       
  54 H54            6.4075    -5.9535     1.0102 H       
  55 H55            7.4975    -4.0312     2.6802 H       
  56 H56            7.7987    -3.3191     0.3705 H       
  57 H57            7.4760    -1.6241     0.8076 H       
  58 H58            8.9563    -2.4259     1.3856 H       
  59 H59            6.6160    -0.4237     2.5596 H       
  60 H60            7.2082    -0.1434     4.2145 H       
  61 H61            9.0086    -1.1166     5.5918 H       
  62 H62            7.2854    -0.9069     5.9851 H       
  63 H63           10.3662    -2.7395     6.7812 H       
  64 H64            6.2395    -2.2276     7.7288 H       
  65 H65            6.5600    -3.4933     9.8163 H       
  66 H66           10.0573     2.0809     0.6333 H       
  67 H67           12.1240     0.9301     1.3161 H       
  68 H68           12.0194    -0.9518     2.9011 H       
  69 H69            9.8484    -1.6799     3.8060 H       
  70 H70            9.7591   -10.1580     4.9960 H       
  71 H71            8.3034   -11.1565     4.7674 H       
  72 H72            9.6018   -11.1841     3.5501 H       
  73 H73            7.6893    -9.8062     2.7803 H       
  74 H74            9.1450    -8.8078     3.0089 H       
@<TRIPOS>BOND
   1    1    2 ar
   2    1    6 ar
   3    1   48 1
   4    2    3 ar
   5    2   49 1
   6    3    4 ar
   7    4    5 ar
   8    4    7 1
   9    5    6 ar
  10    5   10 1
  11    6   50 1
  12    7    8 2
  13    8    9 1
  14    8   18 1
  15    9   10 am
  16    9   12 1
  17   10   11 2
  18   12   13 ar
  19   12   17 ar
  20   13   14 ar
  21   13   51 1
  22   14   15 ar
  23   14   52 1
  24   15   16 ar
  25   15   45 1
  26   16   17 ar
  27   16   53 1
  28   17   54 1
  29   18   19 1
  30   18   20 1
  31   18   55 1
  32   19   56 1
  33   19   57 1
  34   19   58 1
  35   20   21 1
  36   20   24 am
  37   21   22 1
  38   21   59 1
  39   21   60 1
  40   22   23 ar
  41   22   37 ar
  42   23   34 ar
  43   23   38 1
  44   24   25 1
  45   24   26 2
  46   25   27 1
  47   25   61 1
  48   25   62 1
  49   27   28 ar
  50   27   29 ar
  51   28   32 ar
  52   28   63 1
  53   29   30 ar
  54   29   64 1
  55   30   31 ar
  56   30   65 1
  57   31   32 ar
  58   31   33 1
  59   32   41 1
  60   34   35 ar
  61   34   66 1
  62   35   36 ar
  63   35   67 1
  64   36   37 ar
  65   36   68 1
  66   37   69 1
  67   38   39 2
  68   38   40 2
  69   41   42 1
  70   41   43 1
  71   41   44 1
  72   45   47 1
  73   46   47 1
  74   46   70 1
  75   46   71 1
  76   46   72 1
  77   47   73 1
  78   47   74 1

#	End of record

