#	Name: ASD08390014
#	Creating user name:	WinNT
#	Creation time:	15. 06. 2019 21:19

#	Modifying user name:	WinNT
#	Modification time:	15. 06. 2019 21:19

#	Program:	/corina/corina34_cracker 3.40 0067  02.08.2006

@<TRIPOS>MOLECULE
ASD08390014
  49   51    0    0    0
SMALL
NO_CHARGES


@<TRIPOS>ATOM
   1 N1             0.2182     1.7945    -0.3748 N.2     
   2 C2             0.2523     0.4090     0.1132 C.3     
   3 C3             1.7515     0.1261     0.3338 C.3     
   4 N4             2.3957     1.3911    -0.0571 N.pl3   
   5 C5             1.4173     2.2713    -0.4446 C.2     
   6 C6             2.0305    -0.1898     1.8046 C.3     
   7 C7             3.7704     1.6511    -0.0367 C.ar    
   8 C8             4.5817     1.1841    -1.0626 C.ar    
   9 C9             5.9383     1.4422    -1.0407 C.ar    
  10 C10            6.4897     2.1661     0.0031 C.ar    
  11 C11            5.6826     2.6324     1.0272 C.ar    
  12 C12            4.3247     2.3814     1.0064 C.ar    
  13 F13            7.8169     2.4175     0.0225 F       
  14 C14            1.7099     3.6481    -0.9042 C.ar    
  15 C15            2.9369     3.9418    -1.4987 C.ar    
  16 C16            3.2038     5.2268    -1.9249 C.ar    
  17 C17            2.2572     6.2227    -1.7635 C.ar    
  18 C18            1.0386     5.9376    -1.1742 C.ar    
  19 C19            0.7576     4.6551    -0.7496 C.ar    
  20 C20            3.4616    -0.6355     1.9600 C.2     
  21 O21            4.1551    -0.7920     0.9831 O.2     
  22 O22            3.9659    -0.8586     3.1838 O.3     
  23 C23            5.7452    -1.4888     4.7224 C.3     
  24 C24            5.3517    -1.2859     3.2579 C.3     
  25 C25           -0.5160     0.2856     1.4305 C.3     
  26 C26           -0.3186    -0.5287    -0.9192 C.2     
  27 O27            0.1586    -1.6290    -1.0657 O.2     
  28 O28           -1.3573    -0.1415    -1.6762 O.3     
  29 H29            2.0870    -0.6901    -0.3061 H       
  30 H30            1.8606     0.7030     2.4065 H       
  31 H31            1.3639    -0.9851     2.1382 H       
  32 H32            4.1522     0.6191    -1.8767 H       
  33 H33            6.5697     1.0789    -1.8381 H       
  34 H34            6.1148     3.1962     1.8407 H       
  35 H35            3.6949     2.7493     1.8029 H       
  36 H36            3.6768     3.1652    -1.6248 H       
  37 H37            4.1537     5.4556    -2.3850 H       
  38 H38            2.4707     7.2269    -2.0987 H       
  39 H39            0.3038     6.7194    -1.0503 H       
  40 H40           -0.1962     4.4326    -0.2943 H       
  41 H41            5.6248    -0.5508     5.2643 H       
  42 H42            5.1058    -2.2507     5.1682 H       
  43 H43            6.7855    -1.8096     4.7780 H       
  44 H44            5.4721    -2.2239     2.7159 H       
  45 H45            5.9911    -0.5240     2.8120 H       
  46 H46           -1.5596     0.5559     1.2692 H       
  47 H47           -0.4582    -0.7418     1.7900 H       
  48 H48           -0.0776     0.9548     2.1709 H       
  49 H49           -1.6890    -0.7774    -2.3248 H       
@<TRIPOS>BOND
   1    1    2 1
   2    1    5 2
   3    2   25 1
   4    2    3 1
   5    2   26 1
   6    3    4 1
   7    3    6 1
   8    3   29 1
   9    4    5 1
  10    4    7 1
  11    5   14 1
  12    6   20 1
  13    6   30 1
  14    6   31 1
  15    7    8 ar
  16    7   12 ar
  17    8    9 ar
  18    8   32 1
  19    9   10 ar
  20    9   33 1
  21   10   11 ar
  22   10   13 1
  23   11   12 ar
  24   11   34 1
  25   12   35 1
  26   14   15 ar
  27   14   19 ar
  28   15   16 ar
  29   15   36 1
  30   16   17 ar
  31   16   37 1
  32   17   18 ar
  33   17   38 1
  34   18   19 ar
  35   18   39 1
  36   19   40 1
  37   20   21 2
  38   20   22 1
  39   22   24 1
  40   23   24 1
  41   23   41 1
  42   23   42 1
  43   23   43 1
  44   24   44 1
  45   24   45 1
  46   25   46 1
  47   25   47 1
  48   25   48 1
  49   26   27 2
  50   26   28 1
  51   28   49 1

#	End of record

