#	Name: ASD01916346
#	Creating user name:	WinNT
#	Creation time:	15. 06. 2019 20:07

#	Modifying user name:	WinNT
#	Modification time:	15. 06. 2019 20:07

#	Program:	/corina/corina34_cracker 3.40 0067  02.08.2006

@<TRIPOS>MOLECULE
ASD01916346
  37   39    0    0    0
SMALL
NO_CHARGES


@<TRIPOS>ATOM
   1 C1             0.1482     1.2948    -0.3716 C.3     
   2 C2            -0.0251    -0.1802     0.0133 C.3     
   3 C3             0.6169    -0.4299     1.3760 C.3     
   4 C4             2.0509     0.0185     1.3902 C.ar    
   5 C5             2.5312     0.9690     0.4822 C.ar    
   6 C6             1.6338     1.5532    -0.5242 C.2     
   7 O7             2.0659     2.2176    -1.4424 O.2     
   8 N8             2.8905    -0.4876     2.2767 N.ar    
   9 C9             4.1599    -0.1029     2.3079 C.ar    
  10 N10            4.6490     0.7973     1.4639 N.ar    
  11 C11            3.8775     1.3517     0.5467 C.ar    
  12 N12            5.0008    -0.6580     3.2500 N.pl3   
  13 C13            6.3106    -0.1874     3.3817 C.ar    
  14 C14           -1.5159    -0.5174     0.0825 C.3     
  15 C15            6.5936     1.1546     3.1613 C.ar    
  16 C16            7.8885     1.6163     3.2926 C.ar    
  17 C17            8.9029     0.7443     3.6433 C.ar    
  18 C18            8.6247    -0.5924     3.8631 C.ar    
  19 C19            7.3310    -1.0595     3.7389 C.ar    
  20 C20           10.3147     1.2517     3.7857 C.3     
  21 H21           -0.3611     1.4938    -1.3146 H       
  22 H22           -0.2600     1.9326     0.4124 H       
  23 H23            0.4553    -0.8099    -0.7355 H       
  24 H24            0.0633     0.1189     2.1378 H       
  25 H25            0.5733    -1.4953     1.6018 H       
  26 H26            4.2761     2.0841    -0.1397 H       
  27 H27            4.6833    -1.3749     3.8211 H       
  28 H28           -1.9742    -0.3395    -0.8903 H       
  29 H29           -1.6390    -1.5654     0.3560 H       
  30 H30           -1.9965     0.1124     0.8312 H       
  31 H31            5.8019     1.8360     2.8870 H       
  32 H32            8.1092     2.6595     3.1210 H       
  33 H33            9.4193    -1.2708     4.1364 H       
  34 H34            7.1144    -2.1035     3.9107 H       
  35 H35           10.4832     1.5735     4.8134 H       
  36 H36           11.0144     0.4543     3.5354 H       
  37 H37           10.4678     2.0943     3.1115 H       
@<TRIPOS>BOND
   1    1    2 1
   2    1    6 1
   3    1   21 1
   4    1   22 1
   5    2    3 1
   6    2   14 1
   7    2   23 1
   8    3    4 1
   9    3   24 1
  10    3   25 1
  11    4    5 ar
  12    4    8 ar
  13    5    6 1
  14    5   11 ar
  15    6    7 2
  16    8    9 ar
  17    9   10 ar
  18    9   12 1
  19   10   11 ar
  20   11   26 1
  21   12   13 1
  22   12   27 1
  23   13   15 ar
  24   13   19 ar
  25   14   28 1
  26   14   29 1
  27   14   30 1
  28   15   16 ar
  29   15   31 1
  30   16   17 ar
  31   16   32 1
  32   17   18 ar
  33   17   20 1
  34   18   19 ar
  35   18   33 1
  36   19   34 1
  37   20   35 1
  38   20   36 1
  39   20   37 1

#	End of record

