#	Name: ASD00843517
#	Creating user name:	WinNT
#	Creation time:	15. 06. 2019 18:47

#	Modifying user name:	WinNT
#	Modification time:	15. 06. 2019 18:47

#	Program:	/corina/corina34_cracker 3.40 0067  02.08.2006

@<TRIPOS>MOLECULE
ASD00843517
  81   86    0    0    0
SMALL
NO_CHARGES


@<TRIPOS>ATOM
   1 F1             5.5727    -2.3881    -2.0715 F       
   2 N2             0.7595     1.0370    -0.2448 N.ar    
   3 C3             0.9576    -0.2409    -0.5218 C.ar    
   4 C4             0.8649    -1.2039     0.4752 C.ar    
   5 C5             0.5617    -0.8091     1.7664 C.ar    
   6 C6             0.3609     0.5418     2.0158 C.ar    
   7 C7             0.4690     1.4438     0.9765 C.ar    
   8 C8             1.0909    -2.6590     0.1548 C.3     
   9 C9             0.7970    -3.5200     1.3645 C.2     
  10 C10            0.2233    -3.0863    -1.0307 C.3     
  11 C11           -1.2199    -2.7655    -0.7385 C.2     
  12 N12           -2.1840    -3.1567    -1.5952 N.am    
  13 O13           -1.5137    -2.1553     0.2676 O.2     
  14 C14           -3.5846    -2.7584    -1.3884 C.3     
  15 C15           -4.1154    -2.1509    -2.6913 C.3     
  16 N16           -3.8947    -3.0959    -3.7940 N.3     
  17 C17           -2.4619    -3.3370    -4.0105 C.3     
  18 C18           -1.8624    -3.9881    -2.7651 C.3     
  19 C19           -4.5417    -2.6270    -5.0267 C.3     
  20 C20           -4.1877    -3.5690    -6.1807 C.3     
  21 C21           -4.9130    -3.1105    -7.4479 C.3     
  22 N22           -6.3626    -3.1179    -7.2135 N.3     
  23 C23           -6.7319    -2.1852    -6.1411 C.3     
  24 C24           -6.0608    -2.6160    -4.8349 C.3     
  25 H25           -6.8673    -2.9110    -8.0624 H       
  26 O26           -0.2681    -3.6188     1.9363 O.2     
  27 N27            1.9365    -4.1548     1.6860 N.am    
  28 C28            2.5524    -2.9166    -0.1348 C.ar    
  29 C29            2.9868    -3.8236     0.8265 C.ar    
  30 C30            3.4106    -2.4372    -1.0996 C.ar    
  31 C31            4.7294    -2.8564    -1.1256 C.ar    
  32 C32            5.1839    -3.7678    -0.1671 C.ar    
  33 C33            4.3096    -4.2495     0.8068 C.ar    
  34 C34            1.7001    -6.8172     2.3422 C.ar    
  35 C35            2.7052    -7.6170     1.8313 C.ar    
  36 C36            0.3984    -7.2809     2.3777 C.ar    
  37 C37            0.1017    -8.5446     1.9023 C.ar    
  38 C38            1.1066    -9.3443     1.3910 C.ar    
  39 C39            2.4084    -8.8805     1.3555 C.ar    
  40 H40            0.8748   -10.3316     1.0195 H       
  41 H41            3.7222    -7.2547     1.8036 H       
  42 C42            6.5467    -4.2071    -0.1862 C.1     
  43 N43            7.6279    -4.5555    -0.2014 N.1     
  44 S44            2.0795    -5.2093     2.9549 S.o2    
  45 O45            3.4560    -5.2286     3.3074 O.2     
  46 O46            1.0469    -4.8755     3.8723 O.2     
  47 O47            1.2539    -0.6151    -1.7918 O.3     
  48 C48            1.2833     0.4153    -2.7815 C.3     
  49 C49            1.7334    -0.1752    -4.1193 C.3     
  50 F50            2.9740    -0.8016    -3.9587 F       
  51 F51            0.7909    -1.1123    -4.5561 F       
  52 H52            0.4826    -1.5354     2.5618 H       
  53 H53            0.1225     0.8832     3.0123 H       
  54 H54            0.3142     2.4959     1.1653 H       
  55 H55            0.5407    -2.5502    -1.9252 H       
  56 H56            0.3316    -4.1588    -1.1923 H       
  57 H57           -4.1787    -3.6330    -1.1236 H       
  58 H58           -3.6409    -2.0186    -0.5899 H       
  59 H59           -5.1823    -1.9512    -2.5914 H       
  60 H60           -3.5886    -1.2196    -2.8994 H       
  61 H61           -2.3296    -3.9977    -4.8673 H       
  62 H62           -1.9581    -2.3892    -4.2003 H       
  63 H63           -0.7807    -4.0639    -2.8762 H       
  64 H64           -2.2899    -4.9815    -2.6294 H       
  65 H65           -4.1957    -1.6199    -5.2593 H       
  66 H66           -3.1111    -3.5484    -6.3500 H       
  67 H67           -4.4980    -4.5835    -5.9307 H       
  68 H68           -4.5919    -2.1012    -7.7051 H       
  69 H69           -4.6743    -3.7875    -8.2681 H       
  70 H70           -6.4022    -1.1801    -6.4045 H       
  71 H71           -7.8142    -2.1901    -6.0122 H       
  72 H72           -6.4006    -3.6155    -4.5637 H       
  73 H73           -6.3226    -1.9146    -4.0427 H       
  74 H74            3.0539    -1.7335    -1.8371 H       
  75 H75            4.6610    -4.9534     1.5468 H       
  76 H76           -0.3868    -6.6561     2.7771 H       
  77 H77           -0.9152    -8.9072     1.9306 H       
  78 H78            3.1936    -9.5054     0.9563 H       
  79 H79            0.2867     0.8433    -2.8902 H       
  80 H80            1.9816     1.1940    -2.4747 H       
  81 H81            1.8218     0.6222    -4.8571 H       
@<TRIPOS>BOND
   1    1   31 1
   2    2    3 ar
   3    2    7 ar
   4    3    4 ar
   5    3   47 1
   6    4    5 ar
   7    4    8 1
   8    5    6 ar
   9    5   52 1
  10    6    7 ar
  11    6   53 1
  12    7   54 1
  13    8    9 1
  14    8   10 1
  15    8   28 1
  16    9   26 2
  17    9   27 am
  18   10   11 1
  19   10   55 1
  20   10   56 1
  21   11   12 am
  22   11   13 2
  23   12   14 1
  24   12   18 1
  25   14   15 1
  26   14   57 1
  27   14   58 1
  28   15   16 1
  29   15   59 1
  30   15   60 1
  31   16   17 1
  32   16   19 1
  33   17   18 1
  34   17   61 1
  35   17   62 1
  36   18   63 1
  37   18   64 1
  38   19   20 1
  39   19   24 1
  40   19   65 1
  41   20   21 1
  42   20   66 1
  43   20   67 1
  44   21   22 1
  45   21   68 1
  46   21   69 1
  47   22   23 1
  48   22   25 1
  49   23   24 1
  50   23   70 1
  51   23   71 1
  52   24   72 1
  53   24   73 1
  54   27   44 am
  55   27   29 1
  56   28   29 ar
  57   28   30 ar
  58   29   33 ar
  59   30   31 ar
  60   30   74 1
  61   31   32 ar
  62   32   33 ar
  63   32   42 1
  64   33   75 1
  65   34   35 ar
  66   34   36 ar
  67   34   44 1
  68   35   41 1
  69   35   39 ar
  70   36   37 ar
  71   36   76 1
  72   37   38 ar
  73   37   77 1
  74   38   39 ar
  75   38   40 1
  76   39   78 1
  77   42   43 3
  78   44   45 2
  79   44   46 2
  80   47   48 1
  81   48   49 1
  82   48   79 1
  83   48   80 1
  84   49   50 1
  85   49   51 1
  86   49   81 1

#	End of record

