#	Name: ASD01000040
#	Creating user name:	WinNT
#	Creation time:	15. 06. 2019 18:54

#	Modifying user name:	WinNT
#	Modification time:	15. 06. 2019 18:54

#	Program:	/corina/corina34_cracker 3.40 0067  02.08.2006

@<TRIPOS>MOLECULE
ASD01000040
  39   41    0    0    0
SMALL
NO_CHARGES


@<TRIPOS>ATOM
   1 C1            -0.0981     1.3987     0.3932 C.3     
   2 C2             3.9385    -2.5571     1.7310 C.ar    
   3 C3             2.8083    -2.0434     1.1125 C.ar    
   4 C4             2.2056    -2.7437     0.0852 C.ar    
   5 C5             2.7281    -3.9567    -0.3259 C.ar    
   6 C6             3.8549    -4.4713     0.2904 C.ar    
   7 C7             4.4638    -3.7717     1.3139 C.ar    
   8 C8             0.9779    -2.1858    -0.5876 C.3     
   9 N9            -0.1952    -2.9035    -0.0600 N.am    
  10 C10            0.9937    -0.6808    -0.4156 C.2     
  11 C11           -0.0592    -0.0972     0.2011 C.2     
  12 N12           -1.1010    -0.8544     0.6568 N.am    
  13 C13           -1.1675    -2.1843     0.5346 C.2     
  14 C14            2.0809     0.0615    -0.8895 C.2     
  15 S15           -2.5373    -3.0027     1.1551 S.2     
  16 O16            2.9990    -0.5065    -1.4470 O.2     
  17 O17            4.5332    -1.8695     2.7415 O.3     
  18 Br18           1.9008    -4.9132    -1.7317 Br      
  19 C19            2.1263     1.5576    -0.7150 C.3     
  20 C20            1.3278     1.9353     0.5370 C.3     
  21 C21           -1.9469    -0.1044     2.8256 C.3     
  22 C22           -2.2123    -0.1678     1.3201 C.3     
  23 H23           -0.5753     1.8631    -0.4698 H       
  24 H24           -0.6670     1.6344     1.2925 H       
  25 H25            2.3994    -1.0969     1.4339 H       
  26 H26            4.2609    -5.4189    -0.0315 H       
  27 H27            5.3436    -4.1735     1.7945 H       
  28 H28            1.0539    -2.4028    -1.6530 H       
  29 H29           -0.2659    -3.8677    -0.1384 H       
  30 H30            4.1940    -2.0897     3.6199 H       
  31 H31            3.1610     1.8807    -0.6006 H       
  32 H32            1.6855     2.0405    -1.5872 H       
  33 H33            1.3012     3.0201     0.6399 H       
  34 H34            1.7971     1.4943     1.4164 H       
  35 H35           -1.8565    -1.1160     3.2215 H       
  36 H36           -1.0214     0.4414     3.0087 H       
  37 H37           -2.7737     0.4064     3.3191 H       
  38 H38           -2.3026     0.8437     0.9242 H       
  39 H39           -3.1378    -0.7137     1.1370 H       
@<TRIPOS>BOND
   1    1   11 1
   2    1   20 1
   3    1   23 1
   4    1   24 1
   5    2    3 ar
   6    2   17 1
   7    2    7 ar
   8    3    4 ar
   9    3   25 1
  10    4    5 ar
  11    4    8 1
  12    5    6 ar
  13    5   18 1
  14    6    7 ar
  15    6   26 1
  16    7   27 1
  17    8    9 1
  18    8   10 1
  19    8   28 1
  20    9   13 am
  21    9   29 1
  22   10   11 2
  23   10   14 1
  24   11   12 1
  25   12   22 1
  26   12   13 am
  27   13   15 2
  28   14   16 2
  29   14   19 1
  30   17   30 1
  31   19   20 1
  32   19   31 1
  33   19   32 1
  34   20   33 1
  35   20   34 1
  36   21   22 1
  37   21   35 1
  38   21   36 1
  39   21   37 1
  40   22   38 1
  41   22   39 1

#	End of record

