#	Name: ASD07300688
#	Creating user name:	WinNT
#	Creation time:	15. 06. 2019 21:10

#	Modifying user name:	WinNT
#	Modification time:	15. 06. 2019 21:10

#	Program:	/corina/corina34_cracker 3.40 0067  02.08.2006

@<TRIPOS>MOLECULE
ASD07300688
  39   40    0    0    0
SMALL
NO_CHARGES


@<TRIPOS>ATOM
   1 N1            -0.0169     1.3952     0.0097 N.pl3   
   2 N2             0.0021    -0.0041     0.0020 N.2     
   3 C3             1.2420    -0.4088    -0.0120 C.2     
   4 C4             2.0738     0.7314    -0.0138 C.2     
   5 C5             1.2501     1.8374    -0.0000 C.2     
   6 O6             4.5237    -0.3938    -0.0428 O.3     
   7 B7             3.6437     0.7392    -0.0283 Du      
   8 O8             4.5125     1.8809    -0.0305 O.3     
   9 C9             5.5814     1.5248    -0.9324 C.3     
  10 C10            5.5890    -0.0174    -0.9407 C.3     
  11 C11            6.9300    -0.5467    -0.4284 C.3     
  12 C12            5.3097    -0.5443    -2.3497 C.3     
  13 C13            5.2968     2.0641    -2.3356 C.3     
  14 C14            6.9172     2.0617    -0.4143 C.3     
  15 C15           -1.2171     2.2353     0.0202 C.3     
  16 C16           -2.1155     1.8559    -1.1587 C.3     
  17 O17           -3.2861     2.6754    -1.1484 O.3     
  18 C18           -4.1973     2.4007    -2.2145 C.3     
  19 H19            1.5741    -1.4365    -0.0201 H       
  20 H20            1.5666     2.8700     0.0022 H       
  21 H21            6.8986    -1.6354    -0.3857 H       
  22 H22            7.7263    -0.2324    -1.1031 H       
  23 H23            7.1205    -0.1493     0.5685 H       
  24 H24            4.3597    -0.1452    -2.7051 H       
  25 H25            6.1095    -0.2300    -3.0203 H       
  26 H26            5.2610    -1.6330    -2.3275 H       
  27 H27            5.2374     3.1520    -2.3016 H       
  28 H28            6.0996     1.7650    -3.0095 H       
  29 H29            4.3508     1.6596    -2.6954 H       
  30 H30            7.1116     1.6555     0.5783 H       
  31 H31            7.7165     1.7626    -1.0923 H       
  32 H32            6.8750     3.1496    -0.3598 H       
  33 H33           -1.7589     2.0831     0.9537 H       
  34 H34           -0.9281     3.2828    -0.0655 H       
  35 H35           -1.5736     2.0081    -2.0921 H       
  36 H36           -2.4044     0.8084    -1.0729 H       
  37 H37           -3.6986     2.5641    -3.1698 H       
  38 H38           -4.5294     1.3645    -2.1506 H       
  39 H39           -5.0587     3.0638    -2.1361 H       
@<TRIPOS>BOND
   1    1    2 1
   2    1    5 1
   3    1   15 1
   4    2    3 2
   5    3    4 1
   6    3   19 1
   7    4    5 2
   8    4    7 1
   9    5   20 1
  10    6    7 1
  11    6   10 1
  12    7    8 1
  13    8    9 1
  14    9   10 1
  15    9   13 1
  16    9   14 1
  17   10   11 1
  18   10   12 1
  19   11   21 1
  20   11   22 1
  21   11   23 1
  22   12   24 1
  23   12   25 1
  24   12   26 1
  25   13   27 1
  26   13   28 1
  27   13   29 1
  28   14   30 1
  29   14   31 1
  30   14   32 1
  31   15   16 1
  32   15   33 1
  33   15   34 1
  34   16   17 1
  35   16   35 1
  36   16   36 1
  37   17   18 1
  38   18   37 1
  39   18   38 1
  40   18   39 1

#	End of record

