#	Name: ASD01911319
#	Creating user name:	WinNT
#	Creation time:	15. 06. 2019 19:57

#	Modifying user name:	WinNT
#	Modification time:	15. 06. 2019 19:57

#	Program:	/corina/corina34_cracker 3.40 0067  02.08.2006

@<TRIPOS>MOLECULE
ASD01911319
  33   35    0    0    0
SMALL
NO_CHARGES


@<TRIPOS>ATOM
   1 C1            -0.0981     1.5717    -0.2593 C.ar    
   2 C2            -0.1067     0.1885    -0.3027 C.ar    
   3 C3             1.0833    -0.5176    -0.3150 C.ar    
   4 C4             2.2877     0.1535    -0.2839 C.ar    
   5 C5             2.3044     1.5503    -0.2405 C.ar    
   6 C6             1.0985     2.2566    -0.2284 C.ar    
   7 C7             3.5509     2.2543    -0.2081 C.1     
   8 C8             4.5729     2.8315    -0.1816 C.1     
   9 C9             5.8195     3.5356    -0.1492 C.ar    
  10 N10            5.8246     4.8646    -0.1079 N.ar    
  11 C11            6.9511     5.5585    -0.0771 C.ar    
  12 C12            8.1828     4.9060    -0.0822 C.ar    
  13 C13            8.2146     3.5124    -0.1266 C.ar    
  14 C14            7.0183     2.8201    -0.1553 C.ar    
  15 O15            6.8757     6.9164    -0.0478 O.3     
  16 C16            8.0680     7.6193     0.3155 C.3     
  17 C17            9.2378     7.0006    -0.4606 C.3     
  18 N18            9.3912     5.6030    -0.0391 N.3     
  19 C19           10.4202     4.9225    -0.8366 C.3     
  20 H20           -1.0308     2.1162    -0.2542 H       
  21 H21           -1.0469    -0.3424    -0.3268 H       
  22 H22            1.0688    -1.5970    -0.3485 H       
  23 H23            3.2157    -0.3989    -0.2928 H       
  24 H24            1.1037     3.3361    -0.1952 H       
  25 H25            9.1563     2.9837    -0.1343 H       
  26 H26            7.0113     1.7407    -0.1898 H       
  27 H27            7.9687     8.6729     0.0544 H       
  28 H28            8.2427     7.5194     1.3868 H       
  29 H29            9.0291     7.0396    -1.5298 H       
  30 H30           10.1531     7.5511    -0.2434 H       
  31 H31           11.3426     5.5029    -0.8109 H       
  32 H32           10.6034     3.9307    -0.4232 H       
  33 H33           10.0783     4.8291    -1.8673 H       
@<TRIPOS>BOND
   1    1    2 ar
   2    1    6 ar
   3    1   20 1
   4    2    3 ar
   5    2   21 1
   6    3    4 ar
   7    3   22 1
   8    4    5 ar
   9    4   23 1
  10    5    6 ar
  11    5    7 1
  12    6   24 1
  13    7    8 3
  14    8    9 1
  15    9   10 ar
  16    9   14 ar
  17   10   11 ar
  18   11   12 ar
  19   11   15 1
  20   12   13 ar
  21   12   18 1
  22   13   14 ar
  23   13   25 1
  24   14   26 1
  25   15   16 1
  26   16   17 1
  27   16   27 1
  28   16   28 1
  29   17   18 1
  30   17   29 1
  31   17   30 1
  32   18   19 1
  33   19   31 1
  34   19   32 1
  35   19   33 1

#	End of record

