#	Name: ASD03331613
#	Creating user name:	WinNT
#	Creation time:	15. 06. 2019 20:39

#	Modifying user name:	WinNT
#	Modification time:	15. 06. 2019 20:39

#	Program:	/corina/corina34_cracker 3.40 0067  02.08.2006

@<TRIPOS>MOLECULE
ASD03331613
  63   65    0    0    0
SMALL
NO_CHARGES


@<TRIPOS>ATOM
   1 C1            -0.1388     1.7226     0.4840 C.ar    
   2 C2            -0.0070     0.2557     0.3462 C.2     
   3 N3            -0.9849    -0.6579     0.5884 N.pl3   
   4 C4            -0.4702    -1.8869     0.3463 C.2     
   5 C5             0.8198    -1.7170    -0.0409 C.2     
   6 N6             1.0741    -0.3876    -0.0369 N.2     
   7 C7             1.7684    -2.7846    -0.4042 C.2     
   8 N8             3.0266    -2.4716    -0.7721 N.am    
   9 C9            -2.3698    -0.4098     1.0356 C.3     
  10 C10           -2.5114    -1.0492     2.4265 C.3     
  11 C11           -2.7181    -2.5400     2.3154 C.3     
  12 N12           -1.5696    -3.3300     1.9253 N.3     
  13 C13           -1.2387    -3.1870     0.4946 C.3     
  14 C14           -0.9861     2.2611     1.4527 C.ar    
  15 O15            1.4158    -3.9482    -0.3720 O.2     
  16 C16            3.9696    -3.5330    -1.1333 C.3     
  17 C17           -1.7558    -4.7424     2.2839 C.3     
  18 C18           -3.2051    -3.0521     3.6724 C.3     
  19 C19            3.7859    -3.8984    -2.6076 C.3     
  20 C20            5.3793    -3.0508    -0.9071 C.2     
  21 C21            2.3962    -4.5044    -2.8135 C.3     
  22 C22           -1.1054     3.6316     1.5770 C.ar    
  23 C23           -0.3842     4.4710     0.7397 C.ar    
  24 C24            0.4577     3.9393    -0.2235 C.ar    
  25 C25            0.5885     2.5721    -0.3506 C.ar    
  26 F26           -0.5038     5.8110     0.8640 F       
  27 F27           -1.9253     4.1554     2.5143 F       
  28 O28            5.5769    -1.9308    -0.4858 O.2     
  29 N29            6.4206    -3.8641    -1.1732 N.am    
  30 C30            7.7911    -3.3953    -0.9533 C.3     
  31 C31            2.1649    -4.7547    -4.3051 C.3     
  32 C32            2.2995    -5.8286    -2.0532 C.3     
  33 H33            3.3078    -1.5436    -0.7977 H       
  34 H34           -2.5543     0.6626     1.0983 H       
  35 H35           -3.0732    -0.8695     0.3412 H       
  36 H36           -1.6076    -0.8548     3.0039 H       
  37 H37           -3.3653    -0.6063     2.9392 H       
  38 H38           -3.5109    -2.7168     1.5885 H       
  39 H39           -2.1535    -3.1477    -0.0968 H       
  40 H40           -0.6203    -4.0239     0.1702 H       
  41 H41           -1.5479     1.6077     2.1038 H       
  42 H42            3.7825    -4.4111    -0.5152 H       
  43 H43           -2.7011    -5.0994     1.8752 H       
  44 H44           -0.9365    -5.3325     1.8735 H       
  45 H45           -1.7681    -4.8431     3.3692 H       
  46 H46           -4.0690    -2.4693     3.9919 H       
  47 H47           -3.4868    -4.1014     3.5850 H       
  48 H48           -2.4063    -2.9503     4.4071 H       
  49 H49            3.8856    -3.0018    -3.2193 H       
  50 H50            4.5455    -4.6237    -2.8995 H       
  51 H51            1.6399    -3.8145    -2.4393 H       
  52 H52            1.0164     4.5968    -0.8732 H       
  53 H53            1.2453     2.1594    -1.1021 H       
  54 H54            6.2626    -4.7598    -1.5102 H       
  55 H55            8.4927    -4.1850    -1.2221 H       
  56 H56            7.9782    -2.5172    -1.5714 H       
  57 H57            7.9219    -3.1349     0.0970 H       
  58 H58            2.9212    -5.4446    -4.6793 H       
  59 H59            1.1748    -5.1864    -4.4517 H       
  60 H60            2.2338    -3.8113    -4.8467 H       
  61 H61            2.4643    -5.6503    -0.9906 H       
  62 H62            1.3095    -6.2603    -2.1999 H       
  63 H63            3.0558    -6.5185    -2.4274 H       
@<TRIPOS>BOND
   1    1    2 1
   2    1   14 ar
   3    1   25 ar
   4    2    3 1
   5    2    6 2
   6    3    4 1
   7    3    9 1
   8    4    5 2
   9    4   13 1
  10    5    6 1
  11    5    7 1
  12    7    8 am
  13    7   15 2
  14    8   16 1
  15    8   33 1
  16    9   10 1
  17    9   34 1
  18    9   35 1
  19   10   11 1
  20   10   36 1
  21   10   37 1
  22   11   12 1
  23   11   18 1
  24   11   38 1
  25   12   13 1
  26   12   17 1
  27   13   39 1
  28   13   40 1
  29   14   22 ar
  30   14   41 1
  31   16   19 1
  32   16   20 1
  33   16   42 1
  34   17   43 1
  35   17   44 1
  36   17   45 1
  37   18   46 1
  38   18   47 1
  39   18   48 1
  40   19   21 1
  41   19   49 1
  42   19   50 1
  43   20   28 2
  44   20   29 am
  45   21   31 1
  46   21   32 1
  47   21   51 1
  48   22   23 ar
  49   22   27 1
  50   23   24 ar
  51   23   26 1
  52   24   25 ar
  53   24   52 1
  54   25   53 1
  55   29   30 1
  56   29   54 1
  57   30   55 1
  58   30   56 1
  59   30   57 1
  60   31   58 1
  61   31   59 1
  62   31   60 1
  63   32   61 1
  64   32   62 1
  65   32   63 1

#	End of record

