#	Name: ASD00530008
#	Creating user name:	WinNT
#	Creation time:	15. 06. 2019 18:36

#	Modifying user name:	WinNT
#	Modification time:	15. 06. 2019 18:36

#	Program:	/corina/corina34_cracker 3.40 0067  02.08.2006

@<TRIPOS>MOLECULE
ASD00530008
  42   44    0    0    0
SMALL
NO_CHARGES


@<TRIPOS>ATOM
   1 O1            -0.0164     1.3548     0.0095 O.3     
   2 C2             0.0021    -0.0041     0.0020 C.ar    
   3 C3             0.0230    -0.7052     1.1987 C.ar    
   4 C4             0.0412    -2.0867     1.1884 C.ar    
   5 C5             0.0391    -2.7702    -0.0132 C.ar    
   6 C6             0.0183    -2.0736    -1.2076 C.ar    
   7 C7            -0.0058    -0.6926    -1.2026 C.ar    
   8 C8            -0.0289     0.0660    -2.5046 C.3     
   9 N9             1.3208     0.5427    -2.8161 N.pl3   
  10 C10            1.5488     1.2711    -3.9734 C.ar    
  11 N11            2.7720     1.7092    -4.2661 N.ar    
  12 C12            2.9975     2.4016    -5.3639 C.ar    
  13 N13            2.0345     2.6906    -6.2152 N.ar    
  14 C14            0.7840     2.2888    -5.9947 C.ar    
  15 C15            0.5041     1.5502    -4.8491 C.ar    
  16 N16           -0.2231     2.5975    -6.8960 N.pl3   
  17 C17           -1.5950     2.1502    -6.6430 C.3     
  18 C18           -2.4890     2.6125    -7.7645 C.ar    
  19 C19           -3.2795     3.7334    -7.6011 C.ar    
  20 C20           -4.1005     4.1579    -8.6298 C.ar    
  21 C21           -4.1321     3.4623    -9.8240 C.ar    
  22 C22           -3.3433     2.3404    -9.9925 C.ar    
  23 C23           -2.5147     1.9159    -8.9643 C.ar    
  24 O24           -1.7376     0.8130    -9.1277 O.3     
  25 H25            0.8616     1.7601     0.0033 H       
  26 H26            0.0253    -0.1716     2.1377 H       
  27 H27            0.0575    -2.6330     2.1199 H       
  28 H28            0.0541    -3.8501    -0.0191 H       
  29 H29            0.0167    -2.6099    -2.1450 H       
  30 H30           -0.3751    -0.5915    -3.3021 H       
  31 H31           -0.7038     0.9174    -2.4171 H       
  32 H32            2.0550     0.3487    -2.2126 H       
  33 H33            4.0009     2.7426    -5.5719 H       
  34 H34           -0.4993     1.2091    -4.6412 H       
  35 H35           -0.0194     3.1096    -7.6942 H       
  36 H36           -1.6175     1.0619    -6.5854 H       
  37 H37           -1.9465     2.5712    -5.7010 H       
  38 H38           -3.2565     4.2785    -6.6691 H       
  39 H39           -4.7183     5.0341    -8.4998 H       
  40 H40           -4.7741     3.7958   -10.6259 H       
  41 H41           -3.3689     1.7969   -10.9254 H       
  42 H42           -0.8612     0.9998    -9.4911 H       
@<TRIPOS>BOND
   1    1    2 1
   2    1   25 1
   3    2    3 ar
   4    2    7 ar
   5    3    4 ar
   6    3   26 1
   7    4    5 ar
   8    4   27 1
   9    5    6 ar
  10    5   28 1
  11    6    7 ar
  12    6   29 1
  13    7    8 1
  14    8    9 1
  15    8   30 1
  16    8   31 1
  17    9   10 1
  18    9   32 1
  19   10   11 ar
  20   10   15 ar
  21   11   12 ar
  22   12   13 ar
  23   12   33 1
  24   13   14 ar
  25   14   15 ar
  26   14   16 1
  27   15   34 1
  28   16   17 1
  29   16   35 1
  30   17   18 1
  31   17   36 1
  32   17   37 1
  33   18   19 ar
  34   18   23 ar
  35   19   20 ar
  36   19   38 1
  37   20   21 ar
  38   20   39 1
  39   21   22 ar
  40   21   40 1
  41   22   23 ar
  42   22   41 1
  43   23   24 1
  44   24   42 1

#	End of record

