#	Name: ASD05720157
#	Creating user name:	WinNT
#	Creation time:	15. 06. 2019 21:01

#	Modifying user name:	WinNT
#	Modification time:	15. 06. 2019 21:01

#	Program:	/corina/corina34_cracker 3.40 0067  02.08.2006

@<TRIPOS>MOLECULE
ASD05720157
  49   54    0    0    0
SMALL
NO_CHARGES


@<TRIPOS>ATOM
   1 O1            -0.0161     1.3334     0.0094 O.3     
   2 C2             0.0021    -0.0041     0.0020 C.2     
   3 N3             1.2348    -0.5293    -0.0126 N.am    
   4 C4             2.2183     0.5645    -0.0161 C.3     
   5 C5             1.3508     1.8379    -0.0010 C.3     
   6 O6            -1.0069    -0.6808     0.0084 O.2     
   7 C7             3.0997    -3.5830    -0.0446 C.2     
   8 N8             2.7934    -2.2820    -0.0358 N.2     
   9 C9             1.5348    -1.8852    -0.0220 C.2     
  10 C10            0.4948    -2.8369    -0.0165 C.2     
  11 C11            0.8012    -4.1542    -0.0253 C.2     
  12 N12            2.1144    -4.5345    -0.0395 N.pl3   
  13 N13            2.7294    -5.7914    -0.0515 N.2     
  14 C14            4.0306    -5.6364    -0.0634 C.2     
  15 C15            4.3226    -4.2670    -0.0650 C.2     
  16 C16            5.6706    -3.6561    -0.0831 C.ar    
  17 C17            6.6407    -4.0788     0.8272 C.ar    
  18 C18            7.8966    -3.5089     0.8095 C.ar    
  19 C19            8.1963    -2.5093    -0.1195 C.ar    
  20 C20            7.2260    -2.0883    -1.0281 C.ar    
  21 C21            5.9737    -2.6612    -1.0144 C.ar    
  22 N22           11.2830    -0.6691    -0.6320 N.pl3   
  23 N23            9.9472    -0.9508    -0.9614 N.2     
  24 C24            9.5460    -1.8958    -0.1389 C.2     
  25 N25           10.5598    -2.2120     0.6787 N.2     
  26 C26           11.6046    -1.4818     0.3903 C.2     
  27 F27            8.8363    -3.9168     1.6903 F       
  28 C28            3.0621     0.5136    -1.2636 C.ar    
  29 C29            4.4175     0.7766    -1.1917 C.ar    
  30 C30            5.1930     0.7301    -2.3367 C.ar    
  31 C31            4.6092     0.4195    -3.5557 C.ar    
  32 C32            3.2524     0.1568    -3.6244 C.ar    
  33 C33            2.4813     0.1985    -2.4776 C.ar    
  34 F34            5.3643     0.3739    -4.6751 F       
  35 F35            6.5175     0.9874    -2.2672 F       
  36 H36            2.8457     0.5180     0.8740 H       
  37 H37            1.5314     2.4339    -0.8956 H       
  38 H38            1.5485     2.4243     0.8964 H       
  39 H39           -0.5367    -2.5172    -0.0049 H       
  40 H40            0.0174    -4.8972    -0.0209 H       
  41 H41            4.7584    -6.4342    -0.0738 H       
  42 H42            6.4080    -4.8513     1.5451 H       
  43 H43            7.4581    -1.3156    -1.7461 H       
  44 H44            5.2243    -2.3375    -1.7215 H       
  45 H45           11.8615    -0.0190    -1.0605 H       
  46 H46           12.5623    -1.5238     0.8878 H       
  47 H47            4.8710     1.0187    -0.2418 H       
  48 H48            2.7965    -0.0849    -4.5732 H       
  49 H49            1.4232    -0.0110    -2.5311 H       
@<TRIPOS>BOND
   1    1    2 1
   2    1    5 1
   3    2    3 am
   4    2    6 2
   5    3    4 1
   6    3    9 1
   7    4    5 1
   8    4   28 1
   9    4   36 1
  10    5   37 1
  11    5   38 1
  12    7    8 1
  13    7   12 1
  14    7   15 2
  15    8    9 2
  16    9   10 1
  17   10   11 2
  18   10   39 1
  19   11   12 1
  20   11   40 1
  21   12   13 1
  22   13   14 2
  23   14   15 1
  24   14   41 1
  25   15   16 1
  26   16   17 ar
  27   16   21 ar
  28   17   18 ar
  29   17   42 1
  30   18   19 ar
  31   18   27 1
  32   19   20 ar
  33   19   24 1
  34   20   21 ar
  35   20   43 1
  36   21   44 1
  37   22   23 1
  38   22   26 1
  39   22   45 1
  40   23   24 2
  41   24   25 1
  42   25   26 2
  43   26   46 1
  44   28   29 ar
  45   28   33 ar
  46   29   30 ar
  47   29   47 1
  48   30   31 ar
  49   30   35 1
  50   31   32 ar
  51   31   34 1
  52   32   33 ar
  53   32   48 1
  54   33   49 1

#	End of record

