#	Name: ASD00310052
#	Creating user name:	WinNT
#	Creation time:	15. 06. 2019 18:33

#	Modifying user name:	WinNT
#	Modification time:	15. 06. 2019 18:33

#	Program:	/corina/corina34_cracker 3.40 0067  02.08.2006

@<TRIPOS>MOLECULE
ASD00310052
  18   19    0    0    0
SMALL
NO_CHARGES


@<TRIPOS>ATOM
   1 N1            -0.0178     1.4611     0.0101 N.pl3   
   2 C2             0.0021    -0.0041     0.0020 C.3     
   3 C3             1.4911    -0.3865    -0.0143 C.3     
   4 C4             2.2231     0.9368    -0.0141 C.ar    
   5 C5             3.5769     1.2246    -0.0262 C.ar    
   6 C6             4.0077     2.5406    -0.0235 C.ar    
   7 C7             3.0787     3.5684    -0.0091 C.ar    
   8 C8             1.7280     3.2834     0.0029 C.ar    
   9 C9             1.2869     1.9583     0.0003 C.ar    
  10 F10            3.4960     4.8534    -0.0064 F       
  11 F11            4.4797     0.2196    -0.0402 F       
  12 Br12           5.8574     2.9335    -0.0387 Br      
  13 H13           -0.8202     2.0060     0.0170 H       
  14 H14           -0.4787    -0.3937     0.8993 H       
  15 H15           -0.4958    -0.3841    -0.8901 H       
  16 H16            1.7457    -0.9620     0.8757 H       
  17 H17            1.7286    -0.9524    -0.9151 H       
  18 H18            1.0089     4.0891     0.0148 H       
@<TRIPOS>BOND
   1    1    2 1
   2    1    9 1
   3    1   13 1
   4    2    3 1
   5    2   14 1
   6    2   15 1
   7    3    4 1
   8    3   16 1
   9    3   17 1
  10    4    5 ar
  11    4    9 ar
  12    5    6 ar
  13    5   11 1
  14    6    7 ar
  15    6   12 1
  16    7    8 ar
  17    7   10 1
  18    8    9 ar
  19    8   18 1

#	End of record

