#	Name: ASD03740014
#	Creating user name:	WinNT
#	Creation time:	15. 06. 2019 20:46

#	Modifying user name:	WinNT
#	Modification time:	15. 06. 2019 20:46

#	Program:	/corina/corina34_cracker 3.40 0067  02.08.2006

@<TRIPOS>MOLECULE
ASD03740014
  37   39    0    0    0
SMALL
NO_CHARGES


@<TRIPOS>ATOM
   1 C1            -0.0167     1.3781     0.0096 C.ar    
   2 C2             0.0021    -0.0041     0.0020 C.ar    
   3 C3            -1.1855    -0.7115     0.0095 C.ar    
   4 C4            -2.3919    -0.0367     0.0251 C.ar    
   5 C5            -2.4106     1.3455     0.0336 C.ar    
   6 C6            -1.2230     2.0529     0.0305 C.ar    
   7 S7             1.4971     2.2798     0.0000 S.o2    
   8 N8             1.9031     2.5392    -1.5844 N.am    
   9 O9             1.2076     3.5559     0.5541 O.2     
  10 O10            2.4865     1.4086     0.5303 O.2     
  11 C11            1.5372     3.6078    -2.3384 C.2     
  12 C12            2.0752     3.4396    -3.5774 C.2     
  13 C13            2.7888     2.2331    -3.5749 C.2     
  14 N14            2.6897     1.6982    -2.3818 N.2     
  15 N15            0.7539     4.6798    -1.9205 N.pl3   
  16 O16            3.4711     1.7094    -4.6280 O.3     
  17 C17            4.0976     0.5318    -4.4273 C.2     
  18 C18            4.8515    -0.0913    -5.5165 C.2     
  19 O19            4.0360    -0.0125    -3.3411 O.2     
  20 C20           -3.6866    -0.8078     0.0322 C.3     
  21 C21            5.5262    -1.2781    -5.4369 C.2     
  22 C22            6.1487    -1.6288    -6.6107 C.2     
  23 C23            5.9914    -0.7618    -7.6183 C.2     
  24 S24            5.0284     0.5627    -7.1391 S.3     
  25 H25            0.9446    -0.5313    -0.0101 H       
  26 H26           -1.1709    -1.7913     0.0029 H       
  27 H27           -3.3531     1.8728     0.0454 H       
  28 H28           -1.2376     3.1328     0.0372 H       
  29 H29            1.9706     4.1152    -4.4135 H       
  30 H30            0.4154     4.7079    -1.0119 H       
  31 H31            0.5466     5.3987    -2.5377 H       
  32 H32           -3.9892    -1.0003     1.0616 H       
  33 H33           -4.4589    -0.2259    -0.4707 H       
  34 H34           -3.5482    -1.7551    -0.4890 H       
  35 H35            5.5658    -1.8798    -4.5409 H       
  36 H36            6.7234    -2.5376    -6.7127 H       
  37 H37            6.4139    -0.8861    -8.6044 H       
@<TRIPOS>BOND
   1    1    2 ar
   2    1    7 1
   3    1    6 ar
   4    2    3 ar
   5    2   25 1
   6    3    4 ar
   7    3   26 1
   8    4    5 ar
   9    4   20 1
  10    5    6 ar
  11    5   27 1
  12    6   28 1
  13    7    8 am
  14    7    9 2
  15    7   10 2
  16    8   11 1
  17    8   14 1
  18   11   12 2
  19   11   15 1
  20   12   13 1
  21   12   29 1
  22   13   14 2
  23   13   16 1
  24   15   30 1
  25   15   31 1
  26   16   17 1
  27   17   18 1
  28   17   19 2
  29   18   21 2
  30   18   24 1
  31   20   32 1
  32   20   33 1
  33   20   34 1
  34   21   22 1
  35   21   35 1
  36   22   23 2
  37   22   36 1
  38   23   24 1
  39   23   37 1

#	End of record

