#	Name: ASD01410624
#	Creating user name:	WinNT
#	Creation time:	15. 06. 2019 19:18

#	Modifying user name:	WinNT
#	Modification time:	15. 06. 2019 19:18

#	Program:	/corina/corina34_cracker 3.40 0067  02.08.2006

@<TRIPOS>MOLECULE
ASD01410624
  64   67    0    0    0
SMALL
NO_CHARGES


@<TRIPOS>ATOM
   1 S1             2.7085     1.8139     0.2824 S.3     
   2 C2             1.8535     0.2785     0.3326 C.2     
   3 C3             2.7324    -0.7479     0.0764 C.2     
   4 C4             4.0265    -0.3439    -0.1503 C.2     
   5 C5             4.2244     1.0027    -0.0840 C.2     
   6 C6             0.4739     0.1227     0.5963 C.2     
   7 N7             2.3429    -2.0876     0.0490 N.am    
   8 O8            -0.0217    -0.9891     0.6083 O.2     
   9 O9            -0.2944     1.2069     0.8348 O.3     
  10 C10            2.3750    -2.8851     1.2775 C.3     
  11 C11            1.9371    -2.6479    -1.1077 C.2     
  12 C12            1.8090    -1.8038    -2.3495 C.3     
  13 O13            1.6750    -3.8313    -1.1491 O.2     
  14 C14            0.9890    -3.4792     1.5363 C.3     
  15 C15            3.3942    -4.0160     1.1249 C.3     
  16 C16            2.0117    -2.6818    -3.5860 C.3     
  17 C17            1.8817    -1.8249    -4.8469 C.3     
  18 C18            0.4890    -1.1931    -4.8928 C.3     
  19 C19            0.2863    -0.3152    -3.6562 C.3     
  20 C20            0.4163    -1.1721    -2.3954 C.3     
  21 C21            0.3590    -0.3362    -6.1536 C.3     
  22 C22            5.5204     1.6805    -0.2906 C.ar    
  23 C23            5.6052     3.0717    -0.1988 C.ar    
  24 C24            6.8155     3.7007    -0.3920 C.ar    
  25 C25            7.9519     2.9522    -0.6787 C.ar    
  26 C26            7.8709     1.5671    -0.7713 C.ar    
  27 C27            6.6650     0.9313    -0.5725 C.ar    
  28 N28            9.1772     3.5931    -0.8745 N.am    
  29 C29            9.4694     4.7137    -0.1850 C.2     
  30 C30           10.7155     5.4463    -0.4647 C.2     
  31 O31            8.7036     5.1197     0.6685 O.2     
  32 C32           11.0714     6.5760     0.1879 C.2     
  33 S33           12.5739     7.1158    -0.4229 S.3     
  34 C34           12.6404     5.8034    -1.5135 C.2     
  35 N35           11.6027     5.0543    -1.3829 N.2     
  36 H36            4.8245    -1.0397    -0.3639 H       
  37 H37           -1.2238     1.0007     1.0045 H       
  38 H38            2.6603    -2.2496     2.1159 H       
  39 H39            2.5641    -1.0179    -2.3342 H       
  40 H40            0.6911    -4.0908     0.6848 H       
  41 H41            1.0202    -4.0966     2.4340 H       
  42 H42            0.2683    -2.6732     1.6746 H       
  43 H43            4.3920    -3.5927     1.0092 H       
  44 H44            3.3690    -4.6499     2.0113 H       
  45 H45            3.1477    -4.6110     0.2456 H       
  46 H46            3.0040    -3.1319    -3.5534 H       
  47 H47            1.2566    -3.4677    -3.6014 H       
  48 H48            2.6369    -1.0390    -4.8315 H       
  49 H49            2.0262    -2.4504    -5.7278 H       
  50 H50           -0.2661    -1.9790    -4.9081 H       
  51 H51            1.0414     0.4707    -3.6409 H       
  52 H52           -0.7059     0.1349    -3.6889 H       
  53 H53           -0.3389    -1.9580    -2.4108 H       
  54 H54            0.2718    -0.5466    -1.5145 H       
  55 H55            0.5034    -0.9617    -7.0345 H       
  56 H56           -0.6332     0.1139    -6.1863 H       
  57 H57            1.1141     0.4497    -6.1382 H       
  58 H58            4.7229     3.6536     0.0231 H       
  59 H59            6.8818     4.7763    -0.3212 H       
  60 H60            8.7552     0.9888    -0.9948 H       
  61 H61            6.6038    -0.1449    -0.6394 H       
  62 H62            9.8180     3.2318    -1.5068 H       
  63 H63           10.4999     7.0582     0.9671 H       
  64 H64           13.4440     5.6248    -2.2127 H       
@<TRIPOS>BOND
   1    1    2 1
   2    1    5 1
   3    2    3 2
   4    2    6 1
   5    3    4 1
   6    3    7 1
   7    4    5 2
   8    4   36 1
   9    5   22 1
  10    6    8 2
  11    6    9 1
  12    7   10 1
  13    7   11 am
  14    9   37 1
  15   10   14 1
  16   10   15 1
  17   10   38 1
  18   11   13 2
  19   11   12 1
  20   12   16 1
  21   12   20 1
  22   12   39 1
  23   14   40 1
  24   14   41 1
  25   14   42 1
  26   15   43 1
  27   15   44 1
  28   15   45 1
  29   16   17 1
  30   16   46 1
  31   16   47 1
  32   17   18 1
  33   17   48 1
  34   17   49 1
  35   18   19 1
  36   18   21 1
  37   18   50 1
  38   19   20 1
  39   19   51 1
  40   19   52 1
  41   20   53 1
  42   20   54 1
  43   21   55 1
  44   21   56 1
  45   21   57 1
  46   22   23 ar
  47   22   27 ar
  48   23   24 ar
  49   23   58 1
  50   24   25 ar
  51   24   59 1
  52   25   26 ar
  53   25   28 1
  54   26   27 ar
  55   26   60 1
  56   27   61 1
  57   28   29 am
  58   28   62 1
  59   29   30 1
  60   29   31 2
  61   30   32 2
  62   30   35 1
  63   32   33 1
  64   32   63 1
  65   33   34 1
  66   34   35 2
  67   34   64 1

#	End of record

