#	Name: ASD01813470
#	Creating user name:	WinNT
#	Creation time:	15. 06. 2019 19:30

#	Modifying user name:	WinNT
#	Modification time:	15. 06. 2019 19:30

#	Program:	/corina/corina34_cracker 3.40 0067  02.08.2006

@<TRIPOS>MOLECULE
ASD01813470
  51   56    0    0    0
SMALL
NO_CHARGES


@<TRIPOS>ATOM
   1 C1            -0.0184     1.5028     0.0103 C.3     
   2 C2             0.0021    -0.0041     0.0020 C.ar    
   3 C3             0.0057    -0.6754    -1.1732 C.ar    
   4 C4             0.0245    -2.0817    -1.2215 C.ar    
   5 C5             0.0397    -2.8371    -0.0696 C.ar    
   6 C6             0.0368    -2.1889     1.1817 C.ar    
   7 C7             0.0483    -2.6150     2.4980 C.2     
   8 N8             0.0375    -1.5285     3.2820 N.pl3   
   9 C9             0.0448    -1.5488     4.7469 C.3     
  10 N10            0.0187    -0.3715     2.4951 N.2     
  11 C11            0.0233    -0.7180     1.2208 C.ar    
  12 C12            0.0276    -2.7640    -2.5385 C.ar    
  13 C13            0.0177    -2.0152    -3.7139 C.ar    
  14 C14            0.0206    -2.6542    -4.9374 C.ar    
  15 C15            0.0328    -4.0354    -4.9996 C.ar    
  16 C16            0.0353    -4.7268    -6.3387 C.3     
  17 N17            1.3735    -5.2565    -6.6122 N.am    
  18 C18            2.4597    -4.5437    -7.2953 C.3     
  19 C19            3.6257    -5.5015    -7.3323 C.2     
  20 C20            4.9201    -5.3921    -7.8473 C.2     
  21 C21            5.7854    -6.4396    -7.7386 C.2     
  22 C22            5.3604    -7.6239    -7.1055 C.2     
  23 N23            5.9526    -8.7802    -6.8532 N.2     
  24 N24            5.1278    -9.5550    -6.2399 N.2     
  25 C25            3.9797    -8.9477    -6.0681 C.2     
  26 N26            4.0853    -7.7138    -6.6055 N.pl3   
  27 C27            3.2132    -6.6509    -6.7179 C.2     
  28 C28            1.8229    -6.4781    -6.2762 C.2     
  29 O29            1.1701    -7.3216    -5.6911 O.2     
  30 C30            0.0431    -4.7861    -3.8349 C.ar    
  31 F31            0.0559    -6.1354    -3.9019 F       
  32 C32            0.0461    -4.1559    -2.6048 C.ar    
  33 H33            1.0042     1.8801     0.0026 H       
  34 H34           -0.5455     1.8639    -0.8728 H       
  35 H35           -0.5286     1.8543     0.9071 H       
  36 H36           -0.0066    -0.1174    -2.0978 H       
  37 H37            0.0533    -3.9156    -0.1250 H       
  38 H38            0.0631    -3.6414     2.8340 H       
  39 H39            1.0742    -1.5400     5.1052 H       
  40 H40           -0.4791    -0.6709     5.1250 H       
  41 H41           -0.4553    -2.4506     5.1002 H       
  42 H42            0.0074    -0.9362    -3.6674 H       
  43 H43            0.0129    -2.0739    -5.8483 H       
  44 H44           -0.6840    -5.5456    -6.3262 H       
  45 H45           -0.2392    -4.0139    -7.1162 H       
  46 H46            2.1573    -4.2809    -8.3089 H       
  47 H47            2.7285    -3.6462    -6.7382 H       
  48 H48            5.2344    -4.4790    -8.3309 H       
  49 H49            6.7872    -6.3624    -8.1345 H       
  50 H50            3.1065    -9.3598    -5.5843 H       
  51 H51            0.0584    -4.7409    -1.6970 H       
@<TRIPOS>BOND
   1    1    2 1
   2    1   33 1
   3    1   34 1
   4    1   35 1
   5    2   11 ar
   6    2    3 ar
   7    3    4 ar
   8    3   36 1
   9    4    5 ar
  10    4   12 1
  11    5    6 ar
  12    5   37 1
  13    6   11 ar
  14    6    7 2
  15    7    8 1
  16    7   38 1
  17    8    9 1
  18    8   10 1
  19    9   39 1
  20    9   40 1
  21    9   41 1
  22   10   11 2
  23   12   32 ar
  24   12   13 ar
  25   13   14 ar
  26   13   42 1
  27   14   15 ar
  28   14   43 1
  29   15   16 1
  30   15   30 ar
  31   16   17 1
  32   16   44 1
  33   16   45 1
  34   17   28 am
  35   17   18 1
  36   18   19 1
  37   18   46 1
  38   18   47 1
  39   19   27 2
  40   19   20 1
  41   20   21 2
  42   20   48 1
  43   21   22 1
  44   21   49 1
  45   22   26 1
  46   22   23 2
  47   23   24 1
  48   24   25 2
  49   25   26 1
  50   25   50 1
  51   26   27 1
  52   27   28 1
  53   28   29 2
  54   30   31 1
  55   30   32 ar
  56   32   51 1

#	End of record

