#	Name: ASD03331057
#	Creating user name:	WinNT
#	Creation time:	15. 06. 2019 20:38

#	Modifying user name:	WinNT
#	Modification time:	15. 06. 2019 20:38

#	Program:	/corina/corina34_cracker 3.40 0067  02.08.2006

@<TRIPOS>MOLECULE
ASD03331057
  74   77    0    0    0
SMALL
NO_CHARGES


@<TRIPOS>ATOM
   1 N1             1.2750     0.9433    -0.5086 N.pl3   
   2 C2             1.1356    -0.3863    -0.7565 C.2     
   3 C3             2.2361    -1.3180    -1.1922 C.3     
   4 N4             3.4151    -1.1043    -0.3384 N.3     
   5 C5             4.2834    -0.0598    -0.8851 C.3     
   6 C6             3.4639     1.0189    -1.5876 C.3     
   7 C7             2.5296     1.6974    -0.5822 C.3     
   8 C8             0.0445     1.4275    -0.1722 C.2     
   9 N9            -0.8158     0.4365    -0.1934 N.2     
  10 C10           -0.1734    -0.6981    -0.5478 C.2     
  11 C11           -0.7807    -2.0337    -0.6845 C.2     
  12 O12           -0.0947    -2.9830    -1.0121 O.2     
  13 N13           -2.0965    -2.2032    -0.4466 N.am    
  14 C14            4.1573    -2.3568    -0.1426 C.3     
  15 C15           -4.1715    -3.3863    -0.8751 C.2     
  16 C16           -2.7003    -3.5311    -0.5825 C.3     
  17 C17           -2.5137    -4.3119     0.7200 C.3     
  18 C18           -3.1823    -3.5543     1.8690 C.3     
  19 O19           -4.7325    -2.3335    -0.6568 O.2     
  20 C20           -3.1525    -5.6952     0.5813 C.3     
  21 C21           -1.0199    -4.4668     1.0123 C.3     
  22 N22           -4.8638    -4.4269    -1.3795 N.am    
  23 C23           -6.3048    -4.3037    -1.6132 C.3     
  24 C24           -6.9014    -5.6622    -2.0352 C.3     
  25 C25           -7.4458    -6.3200    -0.7551 C.3     
  26 C26           -7.1609    -5.3382     0.4002 C.3     
  27 C27           -7.0403    -3.9590    -0.2944 C.3     
  28 C28           -6.5842    -3.2419    -2.6787 C.3     
  29 O29           -6.1356    -1.9682    -2.2112 O.3     
  30 C30           -0.2678     2.8342     0.1612 C.ar    
  31 C31           -1.3788     3.4608    -0.4098 C.ar    
  32 C32           -1.6647     4.7755    -0.0932 C.ar    
  33 C33           -0.8540     5.4699     0.7860 C.ar    
  34 C34            0.2483     4.8543     1.3544 C.ar    
  35 C35            0.5421     3.5395     1.0512 C.ar    
  36 F36           -2.1711     2.7834    -1.2692 F       
  37 Cl37           1.2599     5.7357     2.4560 Cl      
  38 H38            1.8991    -2.3501    -1.0963 H       
  39 H39            2.4966    -1.1137    -2.2308 H       
  40 H40            4.8521     0.3941    -0.0736 H       
  41 H41            4.9748    -0.5066    -1.5996 H       
  42 H42            4.1357     1.7623    -2.0169 H       
  43 H43            2.8724     0.5645    -2.3825 H       
  44 H44            2.3233     2.7172    -0.9071 H       
  45 H45            3.0022     1.7152     0.3999 H       
  46 H46           -2.6436    -1.4461    -0.1853 H       
  47 H47            4.4290    -2.7735    -1.1125 H       
  48 H48            5.0610    -2.1574     0.4332 H       
  49 H49            3.5326    -3.0688     0.3967 H       
  50 H50           -2.2183    -4.0674    -1.3998 H       
  51 H51           -4.2466    -3.4440     1.6607 H       
  52 H52           -3.0495    -4.1106     2.7969 H       
  53 H53           -2.7273    -2.5688     1.9678 H       
  54 H54           -2.6078    -6.2737    -0.1649 H       
  55 H55           -3.1134    -6.2113     1.5406 H       
  56 H56           -4.1912    -5.5862     0.2693 H       
  57 H57           -0.5649    -3.4813     1.1112 H       
  58 H58           -0.8871    -5.0231     1.9402 H       
  59 H59           -0.5436    -5.0065     0.1938 H       
  60 H60           -4.4079    -5.2574    -1.5877 H       
  61 H61           -7.7105    -5.5090    -2.7494 H       
  62 H62           -6.1268    -6.2892    -2.4768 H       
  63 H63           -8.5190    -6.4860    -0.8479 H       
  64 H64           -6.9353    -7.2662    -0.5754 H       
  65 H65           -7.9868    -5.3361     1.1115 H       
  66 H66           -6.2271    -5.5969     0.8993 H       
  67 H67           -6.4478    -3.2724     0.3103 H       
  68 H68           -8.0264    -3.5423    -0.4996 H       
  69 H69           -6.0546    -3.4994    -3.5960 H       
  70 H70           -7.6551    -3.1994    -2.8773 H       
  71 H71           -6.2813    -1.2458    -2.8373 H       
  72 H72           -2.5227     5.2616    -0.5337 H       
  73 H73           -1.0816     6.4970     1.0302 H       
  74 H74            1.3996     3.0595     1.4992 H       
@<TRIPOS>BOND
   1    1    2 1
   2    1    7 1
   3    1    8 1
   4    2    3 1
   5    2   10 2
   6    3    4 1
   7    3   38 1
   8    3   39 1
   9    4    5 1
  10    4   14 1
  11    5    6 1
  12    5   40 1
  13    5   41 1
  14    6    7 1
  15    6   42 1
  16    6   43 1
  17    7   44 1
  18    7   45 1
  19    8    9 2
  20    8   30 1
  21    9   10 1
  22   10   11 1
  23   11   12 2
  24   11   13 am
  25   13   16 1
  26   13   46 1
  27   14   47 1
  28   14   48 1
  29   14   49 1
  30   15   19 2
  31   15   22 am
  32   15   16 1
  33   16   17 1
  34   16   50 1
  35   17   18 1
  36   17   20 1
  37   17   21 1
  38   18   51 1
  39   18   52 1
  40   18   53 1
  41   20   54 1
  42   20   55 1
  43   20   56 1
  44   21   57 1
  45   21   58 1
  46   21   59 1
  47   22   23 1
  48   22   60 1
  49   23   24 1
  50   23   27 1
  51   23   28 1
  52   24   25 1
  53   24   61 1
  54   24   62 1
  55   25   26 1
  56   25   63 1
  57   25   64 1
  58   26   27 1
  59   26   65 1
  60   26   66 1
  61   27   67 1
  62   27   68 1
  63   28   29 1
  64   28   69 1
  65   28   70 1
  66   29   71 1
  67   30   31 ar
  68   30   35 ar
  69   31   32 ar
  70   31   36 1
  71   32   33 ar
  72   32   72 1
  73   33   34 ar
  74   33   73 1
  75   34   35 ar
  76   34   37 1
  77   35   74 1

#	End of record

