#	Name: ASD03240621
#	Creating user name:	WinNT
#	Creation time:	15. 06. 2019 20:35

#	Modifying user name:	WinNT
#	Modification time:	15. 06. 2019 20:35

#	Program:	/corina/corina34_cracker 3.40 0067  02.08.2006

@<TRIPOS>MOLECULE
ASD03240621
  65   71    0    0    0
SMALL
NO_CHARGES


@<TRIPOS>ATOM
   1 C1            -0.0166     1.3755     0.0096 C.ar    
   2 C2             0.0021    -0.0041     0.0020 C.ar    
   3 N3             1.1422    -0.6683    -0.0058 N.ar    
   4 C4             2.3145    -0.0481    -0.0058 C.ar    
   5 C5             2.3702     1.3442    -0.0124 C.ar    
   6 C6             1.1860     2.0698     0.0018 C.ar    
   7 N7             3.4820    -0.8058     0.0220 N.pl3   
   8 C8             4.3592    -0.7194     1.0997 C.ar    
   9 C9             4.9951     0.4890     1.4037 C.ar    
  10 C10            4.7636     1.6835     0.5620 C.2     
  11 N11            3.5939     2.0276    -0.0512 N.pl3   
  12 C12            4.6051    -1.8391     1.8830 C.ar    
  13 C13            5.4648    -1.7537     2.9615 C.ar    
  14 C14            6.0853    -0.5556     3.2705 C.ar    
  15 C15            5.8559     0.5654     2.4984 C.ar    
  16 N16            5.6750     2.5942     0.2851 N.2     
  17 C17            5.1447     3.5397    -0.5057 C.2     
  18 C18            3.8224     3.2037    -0.7368 C.2     
  19 C19            2.8496     3.9537    -1.5546 C.ar    
  20 C20            2.7505     5.3417    -1.4303 C.ar    
  21 C21            2.0273     3.2797    -2.4609 C.ar    
  22 C22            1.1203     3.9872    -3.2219 C.ar    
  23 C23            1.0240     5.3613    -3.0897 C.ar    
  24 C24            1.8389     6.0361    -2.1978 C.ar    
  25 C25            5.8488     4.7303    -1.0363 C.ar    
  26 C26            0.0308     6.1273    -3.9251 C.3     
  27 C27            6.8176     5.3701    -0.2659 C.ar    
  28 C28            7.4731     6.4839    -0.7691 C.ar    
  29 C29            7.1627     6.9581    -2.0382 C.ar    
  30 C30            6.2012     6.3231    -2.8018 C.ar    
  31 C31            5.5479     5.2107    -2.3113 C.ar    
  32 N32           -1.0281     5.2727    -4.4787 N.3     
  33 C33           -0.4983     7.3990    -3.2414 C.3     
  34 C34           -0.4027     8.0829    -4.6154 C.3     
  35 C35            0.6844     7.0529    -4.9648 C.3     
  36 C36            7.8762     8.1685    -2.5832 C.3     
  37 N37            8.4448     7.1292    -0.0005 N.pl3   
  38 H38           -0.9556     1.9091     0.0170 H       
  39 H39           -0.9306    -0.5486     0.0028 H       
  40 H40            1.2002     3.1497     0.0064 H       
  41 H41            3.6863    -1.4002    -0.7168 H       
  42 H42            4.1239    -2.7773     1.6495 H       
  43 H43            5.6536    -2.6275     3.5675 H       
  44 H44            6.7516    -0.4977     4.1186 H       
  45 H45            6.3417     1.4989     2.7412 H       
  46 H46            3.3859     5.8696    -0.7346 H       
  47 H47            2.1019     2.2074    -2.5657 H       
  48 H48            0.4840     3.4675    -3.9230 H       
  49 H49            1.7581     7.1086    -2.0995 H       
  50 H50            7.0570     5.0002     0.7201 H       
  51 H51            5.9633     6.6962    -3.7870 H       
  52 H52            4.7976     4.7171    -2.9110 H       
  53 H53           -0.6370     4.4643    -4.9386 H       
  54 H54           -1.6836     4.9991    -3.7620 H       
  55 H55           -1.5191     7.3033    -2.8713 H       
  56 H56            0.1849     7.8123    -2.4994 H       
  57 H57           -1.3069     7.9842    -5.2161 H       
  58 H58           -0.0343     9.1077    -4.5684 H       
  59 H59            1.6910     7.3716    -4.6940 H       
  60 H60            0.6185     6.6778    -5.9861 H       
  61 H61            8.7713     7.8521    -3.1187 H       
  62 H62            7.2150     8.7037    -3.2649 H       
  63 H63            8.1582     8.8252    -1.7602 H       
  64 H64            8.6611     6.7983     0.8853 H       
  65 H65            8.9032     7.9082    -0.3526 H       
@<TRIPOS>BOND
   1    1    2 ar
   2    1    6 ar
   3    1   38 1
   4    2    3 ar
   5    2   39 1
   6    3    4 ar
   7    4    5 ar
   8    4    7 1
   9    5    6 ar
  10    5   11 1
  11    6   40 1
  12    7    8 1
  13    7   41 1
  14    8    9 ar
  15    8   12 ar
  16    9   10 1
  17    9   15 ar
  18   10   11 1
  19   10   16 2
  20   11   18 1
  21   12   13 ar
  22   12   42 1
  23   13   14 ar
  24   13   43 1
  25   14   15 ar
  26   14   44 1
  27   15   45 1
  28   16   17 1
  29   17   18 2
  30   17   25 1
  31   18   19 1
  32   19   20 ar
  33   19   21 ar
  34   20   24 ar
  35   20   46 1
  36   21   22 ar
  37   21   47 1
  38   22   23 ar
  39   22   48 1
  40   23   24 ar
  41   23   26 1
  42   24   49 1
  43   25   27 ar
  44   25   31 ar
  45   26   33 1
  46   26   32 1
  47   26   35 1
  48   27   28 ar
  49   27   50 1
  50   28   29 ar
  51   28   37 1
  52   29   30 ar
  53   29   36 1
  54   30   31 ar
  55   30   51 1
  56   31   52 1
  57   32   53 1
  58   32   54 1
  59   33   34 1
  60   33   55 1
  61   33   56 1
  62   34   35 1
  63   34   57 1
  64   34   58 1
  65   35   59 1
  66   35   60 1
  67   36   61 1
  68   36   62 1
  69   36   63 1
  70   37   64 1
  71   37   65 1

#	End of record

