#	Name: ASD02198884
#	Creating user name:	WinNT
#	Creation time:	15. 06. 2019 20:20

#	Modifying user name:	WinNT
#	Modification time:	15. 06. 2019 20:20

#	Program:	/corina/corina34_cracker 3.40 0067  02.08.2006

@<TRIPOS>MOLECULE
ASD02198884
  55   59    0    0    0
SMALL
NO_CHARGES


@<TRIPOS>ATOM
   1 F1             3.3503     0.2617     3.1483 F       
   2 C2             0.4030     2.7268     0.4050 C.2     
   3 C3             0.5674     1.4463     0.8224 C.2     
   4 N4             1.8027     0.9111     0.9472 N.pl3   
   5 N5             2.8792     1.5567     0.6871 N.2     
   6 C6             2.8626     2.8057     0.2735 C.2     
   7 C7             1.5645     3.4787     0.1060 C.2     
   8 C8             1.9116    -0.4139     1.3827 C.ar    
   9 C9             2.6944    -0.7201     2.4918 C.ar    
  10 C10            2.8005    -2.0296     2.9209 C.ar    
  11 C11            2.1263    -3.0380     2.2453 C.ar    
  12 C12            1.3451    -2.7315     1.1382 C.ar    
  13 C13            1.2338    -1.4240     0.7115 C.ar    
  14 C14            4.1229     3.5191    -0.0164 C.2     
  15 N15            4.4563     4.1342    -1.1904 N.pl3   
  16 N16            5.7347     4.6845    -1.0357 N.2     
  17 C17            6.1635     4.4199     0.1727 C.2     
  18 C18            5.1814     3.6950     0.8477 C.2     
  19 C19            3.6617     4.2021    -2.3419 C.ar    
  20 C20            2.9766     3.0773    -2.7817 C.ar    
  21 C21            2.1939     3.1475    -3.9177 C.ar    
  22 C22            2.0922     4.3361    -4.6166 C.ar    
  23 C23            2.7738     5.4581    -4.1814 C.ar    
  24 C24            3.5530     5.3961    -3.0430 C.ar    
  25 O25            1.4924     4.6374    -0.2757 O.2     
  26 N26            2.2343    -4.3660     2.6803 N.pl3   
  27 N27            2.3128    -5.4992     1.8606 N.2     
  28 C28            2.4037    -6.5568     2.6260 C.2     
  29 C29            2.3866    -6.1397     3.9606 C.2     
  30 C30            2.2875    -4.7838     3.9731 C.2     
  31 O31            2.2408    -3.9924     5.0751 O.3     
  32 C32            2.3863    -4.6360     6.3427 C.3     
  33 F33            1.3880    -5.6048     6.4911 F       
  34 F34            3.6429    -5.2466     6.4141 F       
  35 C35            7.4960     4.8341     0.7419 C.3     
  36 C36            2.6610     6.7514    -4.9468 C.3     
  37 F37            1.8189     6.5690    -6.0490 F       
  38 F38            2.1304     7.7418    -4.1133 F       
  39 F39            3.9291     7.1439    -5.3886 F       
  40 H40           -0.5821     3.1570     0.3000 H       
  41 H41           -0.2996     0.8470     1.0582 H       
  42 H42            3.4080    -2.2685     3.7814 H       
  43 H43            0.8212    -3.5167     0.6134 H       
  44 H44            0.6260    -1.1869    -0.1491 H       
  45 H45            5.2425     3.3314     1.8628 H       
  46 H46            3.0559     2.1485    -2.2364 H       
  47 H47            1.6610     2.2729    -4.2605 H       
  48 H48            1.4796     4.3884    -5.5045 H       
  49 H49            4.0847     6.2726    -2.7034 H       
  50 H50            2.4790    -7.5787     2.2847 H       
  51 H51            2.4463    -6.7808     4.8277 H       
  52 H52            2.2959    -3.8964     7.1382 H       
  53 H53            7.3998     5.8093     1.2193 H       
  54 H54            7.8206     4.0994     1.4786 H       
  55 H55            8.2313     4.8934    -0.0606 H       
@<TRIPOS>BOND
   1    1    9 1
   2    2    3 2
   3    2    7 1
   4    2   40 1
   5    3    4 1
   6    3   41 1
   7    4    5 1
   8    4    8 1
   9    5    6 2
  10    6    7 1
  11    6   14 1
  12    7   25 2
  13    8    9 ar
  14    8   13 ar
  15    9   10 ar
  16   10   11 ar
  17   10   42 1
  18   11   12 ar
  19   11   26 1
  20   12   13 ar
  21   12   43 1
  22   13   44 1
  23   14   15 1
  24   14   18 2
  25   15   16 1
  26   15   19 1
  27   16   17 2
  28   17   18 1
  29   17   35 1
  30   18   45 1
  31   19   20 ar
  32   19   24 ar
  33   20   21 ar
  34   20   46 1
  35   21   22 ar
  36   21   47 1
  37   22   23 ar
  38   22   48 1
  39   23   24 ar
  40   23   36 1
  41   24   49 1
  42   26   27 1
  43   26   30 1
  44   27   28 2
  45   28   29 1
  46   28   50 1
  47   29   30 2
  48   29   51 1
  49   30   31 1
  50   31   32 1
  51   32   33 1
  52   32   34 1
  53   32   52 1
  54   35   53 1
  55   35   54 1
  56   35   55 1
  57   36   37 1
  58   36   38 1
  59   36   39 1

#	End of record

