#	Name: ASD01870424
#	Creating user name:	WinNT
#	Creation time:	15. 06. 2019 19:39

#	Modifying user name:	WinNT
#	Modification time:	15. 06. 2019 19:39

#	Program:	/corina/corina34_cracker 3.40 0067  02.08.2006

@<TRIPOS>MOLECULE
ASD01870424
  55   59    0    0    0
SMALL
NO_CHARGES


@<TRIPOS>ATOM
   1 N1            -0.0419     1.3478    -0.3464 N.am    
   2 C2            -0.0253     0.0013    -0.4040 C.2     
   3 C3            -1.3127    -0.7610    -0.5847 C.3     
   4 O4             1.0256    -0.5968    -0.3104 O.2     
   5 C5            -1.1272    -2.2885    -0.6309 C.3     
   6 N6            -2.3293    -2.3596     0.2222 N.am    
   7 C7            -2.0839    -0.9948     0.7270 C.3     
   8 S8            -3.4882    -3.5092     0.5010 S.o2    
   9 C9            -2.9256    -4.5022     1.8434 C.ar    
  10 C10           -3.6077    -4.5127     3.0225 C.ar    
  11 O11           -4.6370    -2.8158     0.9687 O.2     
  12 O12           -3.5012    -4.3516    -0.6433 O.2     
  13 C13            1.2096     2.0889    -0.1708 C.3     
  14 C14            1.8763     2.3461    -1.5379 C.3     
  15 C15            0.9253     3.4919     0.4072 C.3     
  16 N16            1.9023     4.3815    -0.2720 N.3     
  17 C17            1.9388     3.8829    -1.6709 C.3     
  18 C18            1.4829     5.7130    -0.2259 C.ar    
  19 C19            0.7563     6.1767     0.8633 C.ar    
  20 C20            0.3436     7.4940     0.9059 C.ar    
  21 C21            0.6530     8.3510    -0.1344 C.ar    
  22 C22            1.3762     7.8927    -1.2202 C.ar    
  23 C23            1.7965     6.5779    -1.2667 C.ar    
  24 C24           -1.7755    -5.2923     1.7044 C.ar    
  25 C25           -1.3361    -6.0867     2.7954 C.ar    
  26 C26           -2.0619    -6.0676     3.9968 C.ar    
  27 C27           -3.1772    -5.2924     4.0945 C.ar    
  28 C28           -1.0305    -5.3300     0.5116 C.ar    
  29 C29            0.0748    -6.1235     0.4564 C.ar    
  30 N30            0.4634    -6.8561     1.4912 N.ar    
  31 C31           -0.1821    -6.8704     2.6338 C.ar    
  32 H32           -0.8819     1.8263    -0.4253 H       
  33 H33           -1.9286    -0.3690    -1.3940 H       
  34 H34           -1.2664    -2.7182    -1.6230 H       
  35 H35           -0.2184    -2.6358    -0.1393 H       
  36 H36           -1.4562    -0.9620     1.6175 H       
  37 H37           -2.9870    -0.3914     0.8192 H       
  38 H38           -4.4956    -3.9071     3.1284 H       
  39 H39            1.8862     1.5384     0.4828 H       
  40 H40            2.8809     1.9235    -1.5547 H       
  41 H41            1.2725     1.9209    -2.3396 H       
  42 H42           -0.0943     3.7993     0.1748 H       
  43 H43            1.0894     3.4995     1.4847 H       
  44 H44            2.8660     4.1849    -2.1580 H       
  45 H45            1.0778     4.2515    -2.2285 H       
  46 H46            0.5140     5.5078     1.6759 H       
  47 H47           -0.2217     7.8551     1.7523 H       
  48 H48            0.3288     9.3806    -0.0988 H       
  49 H49            1.6162     8.5646    -2.0310 H       
  50 H50            2.3616     6.2207    -2.1149 H       
  51 H51           -1.7404    -6.6664     4.8361 H       
  52 H52           -3.7349    -5.2784     5.0192 H       
  53 H53           -1.3294    -4.7416    -0.3433 H       
  54 H54            0.6511    -6.1575    -0.4563 H       
  55 H55            0.1738    -7.4836     3.4485 H       
@<TRIPOS>BOND
   1    1    2 am
   2    1   13 1
   3    1   32 1
   4    2    3 1
   5    2    4 2
   6    3    5 1
   7    3    7 1
   8    3   33 1
   9    5    6 1
  10    5   34 1
  11    5   35 1
  12    6    7 1
  13    6    8 am
  14    7   36 1
  15    7   37 1
  16    8    9 1
  17    8   11 2
  18    8   12 2
  19    9   24 ar
  20    9   10 ar
  21   10   27 ar
  22   10   38 1
  23   13   14 1
  24   13   15 1
  25   13   39 1
  26   14   17 1
  27   14   40 1
  28   14   41 1
  29   15   16 1
  30   15   42 1
  31   15   43 1
  32   16   17 1
  33   16   18 1
  34   17   44 1
  35   17   45 1
  36   18   19 ar
  37   18   23 ar
  38   19   20 ar
  39   19   46 1
  40   20   21 ar
  41   20   47 1
  42   21   22 ar
  43   21   48 1
  44   22   23 ar
  45   22   49 1
  46   23   50 1
  47   24   25 ar
  48   24   28 ar
  49   25   26 ar
  50   25   31 ar
  51   26   27 ar
  52   26   51 1
  53   27   52 1
  54   28   29 ar
  55   28   53 1
  56   29   30 ar
  57   29   54 1
  58   30   31 ar
  59   31   55 1

#	End of record

