#	Name: ASD03730573
#	Creating user name:	WinNT
#	Creation time:	15. 06. 2019 20:44

#	Modifying user name:	WinNT
#	Modification time:	15. 06. 2019 20:44

#	Program:	/corina/corina34_cracker 3.40 0067  02.08.2006

@<TRIPOS>MOLECULE
ASD03730573
  65   70    0    0    0
SMALL
NO_CHARGES


@<TRIPOS>ATOM
   1 O1            -0.4702     1.1452     1.3293 O.3     
   2 C2            -0.4030    -0.2911     1.4041 C.3     
   3 O3             0.6756    -0.6302     0.5128 O.3     
   4 C4             1.4973     0.4605     0.5021 C.ar    
   5 C5             0.7912     1.5527     1.0012 C.ar    
   6 C6             2.8130     0.6115     0.1028 C.ar    
   7 C7             3.4383     1.8517     0.1901 C.ar    
   8 C8             2.7186     2.9386     0.6772 C.ar    
   9 C9             1.4094     2.7890     1.0846 C.ar    
  10 O10            4.7161     2.2077    -0.1275 O.3     
  11 C11            3.6419     4.1259     0.6172 C.3     
  12 C12            4.7850     3.6382    -0.2837 C.3     
  13 N13            3.0745     6.3081     0.9889 N.am    
  14 C14            2.9672     5.3434     0.0535 C.2     
  15 C15            4.1344     4.5365     1.9728 C.ar    
  16 C16            4.8282     3.8808     2.9804 C.ar    
  17 C17            5.1462     4.5581     4.1570 C.ar    
  18 C18            4.7680     5.8772     4.3108 C.ar    
  19 C19            4.0787     6.5288     3.3085 C.ar    
  20 C20            3.7544     5.8651     2.1265 C.ar    
  21 O21            2.4309     5.4397    -1.0301 O.2     
  22 C22            2.5407     7.6632     0.8311 C.3     
  23 C23            1.1051     7.7105     1.3579 C.3     
  24 C24            0.5477     9.1258     1.1931 C.3     
  25 C25           -0.8880     9.1731     1.7199 C.3     
  26 C26           -1.4454    10.5884     1.5551 C.3     
  27 C27            5.2298     2.4627     2.8061 C.ar    
  28 C28            6.1277     2.1102     1.8014 C.ar    
  29 C29            6.5011     0.7855     1.6415 C.ar    
  30 C30            5.9817    -0.1892     2.4808 C.ar    
  31 C31            5.0870     0.1587     3.4820 C.ar    
  32 C32            4.7141     1.4826     3.6506 C.ar    
  33 O33            4.5799    -0.7990     4.3021 O.3     
  34 C34            5.0119    -2.1422     4.0757 C.3     
  35 O35            7.3768     0.4406     0.6611 O.3     
  36 C36            7.7179    -0.9428     0.5531 C.3     
  37 H37           -0.1747    -0.6113     2.4207 H       
  38 H38           -1.3370    -0.7365     1.0618 H       
  39 H39            3.3588    -0.2387    -0.2789 H       
  40 H40            0.8648     3.6385     1.4698 H       
  41 H41            5.7439     4.0202     0.0665 H       
  42 H42            4.6089     3.9232    -1.3210 H       
  43 H43            5.6857     4.0531     4.9446 H       
  44 H44            5.0131     6.4025     5.2221 H       
  45 H45            3.7884     7.5606     3.4409 H       
  46 H46            3.1574     8.3644     1.3934 H       
  47 H47            2.5497     7.9367    -0.2240 H       
  48 H48            0.4884     7.0094     0.7956 H       
  49 H49            1.0961     7.4371     2.4130 H       
  50 H50            1.1643     9.8270     1.7554 H       
  51 H51            0.5567     9.3992     0.1380 H       
  52 H52           -1.5046     8.4719     1.1576 H       
  53 H53           -0.8970     8.8996     2.7751 H       
  54 H54           -0.8287    11.2895     2.1174 H       
  55 H55           -1.4364    10.8618     0.5000 H       
  56 H56           -2.4682    10.6220     1.9304 H       
  57 H57            6.5321     2.8686     1.1474 H       
  58 H58            6.2743    -1.2210     2.3542 H       
  59 H59            4.0211     1.7535     4.4334 H       
  60 H60            4.5331    -2.8043     4.7971 H       
  61 H61            4.7381    -2.4465     3.0655 H       
  62 H62            6.0942    -2.2002     4.1918 H       
  63 H63            8.1740    -1.2784     1.4845 H       
  64 H64            6.8171    -1.5251     0.3593 H       
  65 H65            8.4229    -1.0803    -0.2668 H       
@<TRIPOS>BOND
   1    1    2 1
   2    1    5 1
   3    2    3 1
   4    2   37 1
   5    2   38 1
   6    3    4 1
   7    4    5 ar
   8    4    6 ar
   9    5    9 ar
  10    6    7 ar
  11    6   39 1
  12    7    8 ar
  13    7   10 1
  14    8    9 ar
  15    8   11 1
  16    9   40 1
  17   10   12 1
  18   11   12 1
  19   11   14 1
  20   11   15 1
  21   12   41 1
  22   12   42 1
  23   13   14 am
  24   13   20 1
  25   13   22 1
  26   14   21 2
  27   15   16 ar
  28   15   20 ar
  29   16   17 ar
  30   16   27 1
  31   17   18 ar
  32   17   43 1
  33   18   19 ar
  34   18   44 1
  35   19   20 ar
  36   19   45 1
  37   22   23 1
  38   22   46 1
  39   22   47 1
  40   23   24 1
  41   23   48 1
  42   23   49 1
  43   24   25 1
  44   24   50 1
  45   24   51 1
  46   25   26 1
  47   25   52 1
  48   25   53 1
  49   26   54 1
  50   26   55 1
  51   26   56 1
  52   27   28 ar
  53   27   32 ar
  54   28   29 ar
  55   28   57 1
  56   29   30 ar
  57   29   35 1
  58   30   31 ar
  59   30   58 1
  60   31   32 ar
  61   31   33 1
  62   32   59 1
  63   33   34 1
  64   34   60 1
  65   34   61 1
  66   34   62 1
  67   35   36 1
  68   36   63 1
  69   36   64 1
  70   36   65 1

#	End of record

