#	Name: ASD01881964
#	Creating user name:	WinNT
#	Creation time:	15. 06. 2019 19:43

#	Modifying user name:	WinNT
#	Modification time:	15. 06. 2019 19:43

#	Program:	/corina/corina34_cracker 3.40 0067  02.08.2006

@<TRIPOS>MOLECULE
ASD01881964
  47   50    0    0    0
SMALL
NO_CHARGES


@<TRIPOS>ATOM
   1 N1            -0.0179     1.4702     0.0101 N.3     
   2 C2             0.0021    -0.0041     0.0020 C.3     
   3 C3             1.4820    -0.4413     0.0110 C.3     
   4 C4             2.2089     0.7978     0.5967 C.3     
   5 C5             1.3770     1.9600    -0.0006 C.3     
   6 O6             1.6671    -1.5807     0.8533 O.3     
   7 F7             2.1449     0.8022     1.9943 F       
   8 C8            -0.7682     1.9929    -1.1396 C.3     
   9 C9            -0.9813     3.4982    -0.9679 C.3     
  10 C10           -1.7627     4.0425    -2.1653 C.3     
  11 O11           -1.9618     5.4485    -2.0049 O.3     
  12 N12           -4.6803     8.2749    -5.8292 N.pl3   
  13 N13           -4.5836     9.5232    -5.1966 N.2     
  14 N14           -3.9393     9.3940    -4.0908 N.2     
  15 C15           -3.5735     8.1094    -3.9090 C.ar    
  16 C16           -4.0382     7.3725    -5.0121 C.ar    
  17 C17           -2.8691     7.4494    -2.8927 C.ar    
  18 C18           -2.6445     6.0917    -2.9896 C.ar    
  19 C19           -3.1115     5.3750    -4.0887 C.ar    
  20 C20           -3.7984     6.0052    -5.0878 C.ar    
  21 C21           -5.3402     7.9873    -7.1052 C.3     
  22 C22           -4.3336     8.1443    -8.2467 C.3     
  23 C23           -4.7997     7.7722    -9.6557 C.3     
  24 C24           -4.6014     9.2417    -9.2787 C.3     
  25 Br25          -2.2312     8.4143    -1.3967 Br      
  26 H26           -0.5030    -0.3866     0.8889 H       
  27 H27           -0.4892    -0.3766    -0.8968 H       
  28 H28            1.8287    -0.6487    -1.0014 H       
  29 H29            3.2429     0.8417     0.2547 H       
  30 H30            1.6974     2.1707    -1.0209 H       
  31 H31            1.4709     2.8516     0.6194 H       
  32 H32            2.5805    -1.8956     0.8938 H       
  33 H33           -0.2061     1.8076    -2.0549 H       
  34 H34           -1.7352     1.4935    -1.1997 H       
  35 H35           -1.5434     3.6835    -0.0526 H       
  36 H36           -0.0143     3.9975    -0.9077 H       
  37 H37           -1.2006     3.8572    -3.0806 H       
  38 H38           -2.7298     3.5432    -2.2255 H       
  39 H39           -2.9284     4.3125    -4.1523 H       
  40 H40           -4.1562     5.4406    -5.9361 H       
  41 H41           -5.7216     6.9663    -7.0949 H       
  42 H42           -6.1669     8.6825    -7.2515 H       
  43 H43           -3.2948     7.9377    -7.9893 H       
  44 H44           -4.0674     7.3211   -10.3253 H       
  45 H45           -5.8234     7.4155    -9.7694 H       
  46 H46           -5.4946     9.8518    -9.1443 H       
  47 H47           -3.7386     9.7574    -9.7003 H       
@<TRIPOS>BOND
   1    1    2 1
   2    1    5 1
   3    1    8 1
   4    2    3 1
   5    2   26 1
   6    2   27 1
   7    3    4 1
   8    3    6 1
   9    3   28 1
  10    4    5 1
  11    4    7 1
  12    4   29 1
  13    5   30 1
  14    5   31 1
  15    6   32 1
  16    8    9 1
  17    8   33 1
  18    8   34 1
  19    9   10 1
  20    9   35 1
  21    9   36 1
  22   10   11 1
  23   10   37 1
  24   10   38 1
  25   11   18 1
  26   12   13 1
  27   12   16 1
  28   12   21 1
  29   13   14 2
  30   14   15 1
  31   15   16 ar
  32   15   17 ar
  33   16   20 ar
  34   17   18 ar
  35   17   25 1
  36   18   19 ar
  37   19   20 ar
  38   19   39 1
  39   20   40 1
  40   21   22 1
  41   21   41 1
  42   21   42 1
  43   22   23 1
  44   22   24 1
  45   22   43 1
  46   23   24 1
  47   23   44 1
  48   23   45 1
  49   24   46 1
  50   24   47 1

#	End of record

