#	Name: ASD01670054
#	Creating user name:	WinNT
#	Creation time:	15. 06. 2019 19:22

#	Modifying user name:	WinNT
#	Modification time:	15. 06. 2019 19:22

#	Program:	/corina/corina34_cracker 3.40 0067  02.08.2006

@<TRIPOS>MOLECULE
ASD01670054
  68   71    0    0    0
SMALL
NO_CHARGES


@<TRIPOS>ATOM
   1 C1            -0.1506     1.1017     0.4077 C.ar    
   2 N2             1.1860     0.4997    -3.5648 N.am    
   3 O3             4.2027    -4.9291     1.6144 O.2     
   4 C4             0.6401     0.6776     1.4606 C.ar    
   5 N5             4.3414    -0.9515     0.9375 N.3     
   6 O6             8.8211    -5.4719     9.9389 O.2     
   7 C7             0.2836     0.9439    -0.8924 C.ar    
   8 O8             3.1126    -0.2450    -2.7488 O.2     
   9 C9             1.8708     0.0931     1.2180 C.ar    
  10 O10            2.8930    -3.4018     2.5533 O.3     
  11 C11            7.1136    -1.7095     2.6316 C.ar    
  12 O12            9.3716    -3.4818    10.7264 O.3     
  13 C13            7.5977    -2.0888     3.8722 C.ar    
  14 O14            5.1547    -4.6332     4.8089 O.3     
  15 C15            1.5235     0.3549    -1.1440 C.ar    
  16 O16            7.4469    -3.4272     5.8246 O.3     
  17 C17            5.3174    -3.2914     2.8456 C.ar    
  18 C18            2.3167    -0.0705    -0.0770 C.ar    
  19 C19            5.9825    -2.3025     2.1151 C.ar    
  20 C20            6.9500    -3.0683     4.6089 C.ar    
  21 C21            5.8068    -3.6741     4.1023 C.ar    
  22 C22            1.9951     0.1826    -2.5346 C.2     
  23 C23            4.1065    -3.9287     2.2973 C.2     
  24 C24            8.7502    -4.2702     9.8352 C.2     
  25 C25           -1.4247     1.5275    -7.6513 C.ar    
  26 C26           -0.4983     2.4515    -7.2052 C.ar    
  27 C27           -1.3563     0.2162    -7.2193 C.ar    
  28 C28            0.4977     2.0636    -6.3286 C.ar    
  29 C29           -0.3601    -0.1717    -6.3430 C.ar    
  30 C30            5.8787    -5.2486     5.8798 C.3     
  31 C31            0.5669     0.7520    -5.8976 C.ar    
  32 C32            6.5634    -4.1430     6.6946 C.3     
  33 C33            3.6574    -0.7067    -0.3393 C.3     
  34 C34            5.4623    -1.8850     0.7637 C.3     
  35 C35            4.7945     0.3084     1.5420 C.3     
  36 C36            7.9641    -3.6564     8.7054 C.3     
  37 C37            1.6533     0.3290    -4.9427 C.3     
  38 C38            7.3614    -4.7662     7.8416 C.3     
  39 H39           -1.1119     1.5534     0.6037 H       
  40 H40            0.2942     0.8409    -3.3938 H       
  41 H41            0.2956     0.8034     2.4764 H       
  42 H42           -0.3348     1.2751    -1.7135 H       
  43 H43            2.4836    -0.2352     2.0445 H       
  44 H44            2.1285    -3.8547     2.1720 H       
  45 H45            7.6228    -0.9417     2.0680 H       
  46 H46            9.8634    -3.9214    11.4335 H       
  47 H47            8.4857    -1.6187     4.2682 H       
  48 H48           -2.2055     1.8316    -8.3327 H       
  49 H49           -0.5515     3.4759    -7.5430 H       
  50 H50           -2.0803    -0.5055    -7.5675 H       
  51 H51            1.2219     2.7853    -5.9806 H       
  52 H52           -0.3062    -1.1964    -6.0060 H       
  53 H53            5.1906    -5.8031     6.5179 H       
  54 H54            6.6308    -5.9251     5.4741 H       
  55 H55            5.8118    -3.4631     7.0957 H       
  56 H56            4.2622    -0.0396    -0.9534 H       
  57 H57            3.5147    -1.6524    -0.8622 H       
  58 H58            5.1211    -2.7648     0.2181 H       
  59 H59            6.2588    -1.3960     0.2030 H       
  60 H60            3.9543     0.9987     1.6159 H       
  61 H61            5.1916     0.1114     2.5378 H       
  62 H62            5.5739     0.7498     0.9208 H       
  63 H63            7.1642    -3.0384     9.1131 H       
  64 H64            8.6249    -3.0399     8.0960 H       
  65 H65            2.5390     0.9433    -5.1047 H       
  66 H66            1.9011    -0.7184    -5.1152 H       
  67 H67            6.7007    -5.3826     8.4511 H       
  68 H68            8.1614    -5.3842     7.4340 H       
@<TRIPOS>BOND
   1    1    4 ar
   2    1    7 ar
   3    1   39 1
   4    2   22 am
   5    2   37 1
   6    2   40 1
   7    3   23 2
   8    4    9 ar
   9    4   41 1
  10    5   33 1
  11    5   34 1
  12    5   35 1
  13    6   24 2
  14    7   15 ar
  15    7   42 1
  16    8   22 2
  17    9   18 ar
  18    9   43 1
  19   10   23 1
  20   10   44 1
  21   11   13 ar
  22   11   19 ar
  23   11   45 1
  24   12   24 1
  25   12   46 1
  26   13   20 ar
  27   13   47 1
  28   14   21 1
  29   14   30 1
  30   15   18 ar
  31   15   22 1
  32   16   20 1
  33   16   32 1
  34   17   19 ar
  35   17   21 ar
  36   17   23 1
  37   18   33 1
  38   19   34 1
  39   20   21 ar
  40   24   36 1
  41   25   26 ar
  42   25   27 ar
  43   25   48 1
  44   26   28 ar
  45   26   49 1
  46   27   29 ar
  47   27   50 1
  48   28   31 ar
  49   28   51 1
  50   29   31 ar
  51   29   52 1
  52   30   32 1
  53   30   53 1
  54   30   54 1
  55   31   37 1
  56   32   38 1
  57   32   55 1
  58   33   56 1
  59   33   57 1
  60   34   58 1
  61   34   59 1
  62   35   60 1
  63   35   61 1
  64   35   62 1
  65   36   38 1
  66   36   63 1
  67   36   64 1
  68   37   65 1
  69   37   66 1
  70   38   67 1
  71   38   68 1

#	End of record

