#	Name: ASD01870722
#	Creating user name:	WinNT
#	Creation time:	15. 06. 2019 19:39

#	Modifying user name:	WinNT
#	Modification time:	15. 06. 2019 19:39

#	Program:	/corina/corina34_cracker 3.40 0067  02.08.2006

@<TRIPOS>MOLECULE
ASD01870722
  41   44    0    0    0
SMALL
NO_CHARGES


@<TRIPOS>ATOM
   1 C1            -0.0167     1.3794     0.0096 C.ar    
   2 C2             0.0021    -0.0041     0.0020 C.ar    
   3 C3             1.2062    -0.6882    -0.0131 C.ar    
   4 C4             2.4024     0.0021    -0.0204 C.ar    
   5 C5             1.1816     2.0958     0.0020 C.ar    
   6 C6             1.4330     3.5482     0.0066 C.2     
   7 C7             2.4058     1.3993    -0.0124 C.ar    
   8 C8             3.5254     2.3568    -0.0175 C.2     
   9 C9             2.9303     3.7448    -0.0072 C.3     
  10 C10            3.3446     4.4997    -1.2439 C.ar    
  11 C11            3.9935     5.7147    -1.1270 C.ar    
  12 C12            4.3735     6.4072    -2.2614 C.ar    
  13 C13            4.1050     5.8845    -3.5127 C.ar    
  14 C14            3.4570     4.6691    -3.6295 C.ar    
  15 C15            3.0808     3.9745    -2.4951 C.ar    
  16 O16            0.5935     4.4227     0.0187 O.2     
  17 O17            4.7061     2.0815    -0.0290 O.2     
  18 C18            4.5184     6.6400    -4.7494 C.3     
  19 C19            5.9097     6.2230    -5.1512 C.2     
  20 C20            6.5450     6.8229    -6.3389 C.ar    
  21 O21            6.5065     5.3944    -4.4980 O.2     
  22 N22            5.8881     7.7352    -7.0487 N.ar    
  23 C23            7.8346     6.4327    -6.7067 C.ar    
  24 C24            8.4177     7.0074    -7.8274 C.ar    
  25 C25            7.6936     7.9493    -8.5393 C.ar    
  26 C26            6.4188     8.2935    -8.1131 C.ar    
  27 Cl27           8.6956     5.2471    -5.7757 Cl      
  28 Cl28          -1.4923    -0.8874     0.0121 Cl      
  29 H29           -0.9596     1.9059     0.0169 H       
  30 H30            1.2097    -1.7682    -0.0190 H       
  31 H31            3.3369    -0.5391    -0.0318 H       
  32 H32            3.2475     4.2821     0.8865 H       
  33 H33            4.2032     6.1231    -0.1495 H       
  34 H34            4.8798     7.3568    -2.1702 H       
  35 H35            3.2469     4.2609    -4.6071 H       
  36 H36            2.5778     3.0232    -2.5863 H       
  37 H37            3.8242     6.4178    -5.5599 H       
  38 H38            4.5052     7.7102    -4.5428 H       
  39 H39            9.4136     6.7268    -8.1371 H       
  40 H40            8.1193     8.4153    -9.4158 H       
  41 H41            5.8543     9.0308    -8.6646 H       
@<TRIPOS>BOND
   1    1    2 ar
   2    1    5 ar
   3    1   29 1
   4    2    3 ar
   5    2   28 1
   6    3    4 ar
   7    3   30 1
   8    4    7 ar
   9    4   31 1
  10    5    7 ar
  11    5    6 1
  12    6    9 1
  13    6   16 2
  14    7    8 1
  15    8    9 1
  16    8   17 2
  17    9   10 1
  18    9   32 1
  19   10   11 ar
  20   10   15 ar
  21   11   12 ar
  22   11   33 1
  23   12   13 ar
  24   12   34 1
  25   13   14 ar
  26   13   18 1
  27   14   15 ar
  28   14   35 1
  29   15   36 1
  30   18   19 1
  31   18   37 1
  32   18   38 1
  33   19   20 1
  34   19   21 2
  35   20   23 ar
  36   20   22 ar
  37   22   26 ar
  38   23   24 ar
  39   23   27 1
  40   24   25 ar
  41   24   39 1
  42   25   26 ar
  43   25   40 1
  44   26   41 1

#	End of record

