#	Name: ASD05740111
#	Creating user name:	WinNT
#	Creation time:	15. 06. 2019 21:02

#	Modifying user name:	WinNT
#	Modification time:	15. 06. 2019 21:02

#	Program:	/corina/corina34_cracker 3.40 0067  02.08.2006

@<TRIPOS>MOLECULE
ASD05740111
  44   47    0    0    0
SMALL
NO_CHARGES


@<TRIPOS>ATOM
   1 C1            -0.0099     1.5061     0.0604 C.3     
   2 N2            -4.9169     4.0403    -4.0108 N.am    
   3 C3            -2.5899     1.3183    -2.1474 C.ar    
   4 C4             1.2870    -0.7382     0.0207 C.2     
   5 C5             1.2351    -2.1953    -0.0171 C.2     
   6 C6             0.0083    -0.0003     0.0222 C.2     
   7 C7            -1.1477    -0.7043    -0.0110 C.2     
   8 C8            -1.1281    -2.1108    -0.0457 C.2     
   9 O9             0.0122    -2.8105    -0.0481 O.3     
  10 C10           -2.4666     0.0247    -0.0102 C.3     
  11 C11           -2.9472     0.1950    -1.4284 C.ar    
  12 C12           -3.7461    -0.7739    -2.0080 C.ar    
  13 O13           -2.1866    -2.7125    -0.0742 O.2     
  14 C14           -3.0334     1.4746    -3.4547 C.ar    
  15 C15           -3.8348     0.4993    -4.0341 C.ar    
  16 C16           -4.1889    -0.6218    -3.3090 C.ar    
  17 N17           -2.6738     2.6096    -4.1849 N.am    
  18 S18           -3.8131     3.4162    -5.0760 S.o2    
  19 O19           -4.5004     2.4308    -5.8348 O.2     
  20 O20           -3.1501     4.5272    -5.6637 O.2     
  21 C21            2.4609    -2.7504    -0.0151 C.2     
  22 S22            3.7079    -1.5211     0.0326 S.3     
  23 C23            2.5697    -0.2572     0.0440 C.2     
  24 O24            2.6999    -4.0888    -0.0456 O.3     
  25 C25            3.9846    -4.5030    -0.1650 C.2     
  26 N26            4.3760    -5.7361    -0.0966 N.2     
  27 S27            5.3238    -3.4751    -0.4349 S.3     
  28 C28            6.4052    -4.8658    -0.4321 C.2     
  29 C29            5.6698    -5.9612    -0.2354 C.2     
  30 H30            1.0132     1.8814     0.0839 H       
  31 H31           -0.5160     1.8860    -0.8271 H       
  32 H32           -0.5401     1.8406     0.9521 H       
  33 H33           -4.8087     3.8928    -3.0582 H       
  34 H34           -5.6717     4.5533    -4.3395 H       
  35 H35           -1.9700     2.0768    -1.6926 H       
  36 H36           -3.1995    -0.5509     0.5551 H       
  37 H37           -2.3400     1.0043     0.4506 H       
  38 H38           -4.0244    -1.6514    -1.4433 H       
  39 H39           -4.1807     0.6173    -5.0503 H       
  40 H40           -4.8120    -1.3805    -3.7589 H       
  41 H41           -1.7568     2.9255    -4.1701 H       
  42 H42            2.8256     0.7917     0.0720 H       
  43 H43            7.4761    -4.8369    -0.5691 H       
  44 H44            6.0980    -6.9517    -0.1913 H       
@<TRIPOS>BOND
   1    1    6 1
   2    1   30 1
   3    1   31 1
   4    1   32 1
   5    2   18 am
   6    2   33 1
   7    2   34 1
   8    3   11 ar
   9    3   14 ar
  10    3   35 1
  11    4    5 1
  12    4    6 1
  13    4   23 2
  14    5   21 2
  15    5    9 1
  16    6    7 2
  17    7    8 1
  18    7   10 1
  19    8    9 1
  20    8   13 2
  21   10   11 1
  22   10   36 1
  23   10   37 1
  24   11   12 ar
  25   12   16 ar
  26   12   38 1
  27   14   15 ar
  28   14   17 1
  29   15   16 ar
  30   15   39 1
  31   16   40 1
  32   17   18 am
  33   17   41 1
  34   18   19 2
  35   18   20 2
  36   21   22 1
  37   21   24 1
  38   22   23 1
  39   23   42 1
  40   24   25 1
  41   25   26 2
  42   25   27 1
  43   26   29 1
  44   27   28 1
  45   28   29 2
  46   28   43 1
  47   29   44 1

#	End of record

