#	Name: ASD01148590
#	Creating user name:	WinNT
#	Creation time:	15. 06. 2019 19:02

#	Modifying user name:	WinNT
#	Modification time:	15. 06. 2019 19:02

#	Program:	/corina/corina34_cracker 3.40 0067  02.08.2006

@<TRIPOS>MOLECULE
ASD01148590
  54   58    0    0    0
SMALL
NO_CHARGES


@<TRIPOS>ATOM
   1 C1            -0.0170     1.4376    -0.0252 C.ar    
   2 C2             0.0192     0.0537    -0.0359 C.ar    
   3 C3            -1.1608    -0.6685    -0.0202 C.ar    
   4 C4            -2.3747    -0.0083     0.0061 C.ar    
   5 C5            -2.4108     1.3738     0.0167 C.ar    
   6 C6            -1.2329     2.0967     0.0064 C.ar    
   7 C7            -3.7352     2.0923     0.0449 C.3     
   8 O8            -4.7242     1.3236     0.7592 O.3     
   9 C9            -3.6508     3.3754     0.9055 C.3     
  10 C10           -4.1239     2.8933     2.2637 C.2     
  11 N11           -4.7055     1.7499     2.1072 N.2     
  12 C12           -3.9500     3.6056     3.5411 C.ar    
  13 C13           -4.4569     3.0243     4.7819 C.ar    
  14 C14           -3.2984     4.8307     3.5748 C.ar    
  15 C15           -3.1211     5.5214     4.7603 C.ar    
  16 C16           -3.5873     5.0190     5.9676 C.ar    
  17 C17           -4.2758     3.7307     5.9945 C.ar    
  18 C18           -3.3838     5.7774     7.2147 C.2     
  19 O19           -3.8849     5.3878     8.2519 O.2     
  20 N20           -2.6423     6.9028     7.2056 N.am    
  21 C21           -4.7622     3.1852     7.1892 C.ar    
  22 C22           -5.1151     1.7880     4.7960 C.ar    
  23 C23           -4.2109     2.4136    -1.3734 C.3     
  24 F24           -4.3434     1.2261    -2.1010 F       
  25 F25           -5.4477     3.0647    -1.3141 F       
  26 F26           -3.2764     3.2437    -2.0018 F       
  27 Cl27           1.5442    -0.7750    -0.0695 Cl      
  28 Cl28           1.4627     2.3452    -0.0442 Cl      
  29 C29           -2.4506     7.6171     8.3803 C.ar    
  30 N30           -1.7191     8.7208     8.3534 N.ar    
  31 N31           -3.0080     7.1815     9.4998 N.ar    
  32 C32           -2.8454     7.8383    10.6364 C.ar    
  33 C33           -2.0810     8.9946    10.6455 C.ar    
  34 C34           -1.5168     9.4250     9.4547 C.ar    
  35 C35           -5.5719     1.2819     5.9766 C.ar    
  36 C36           -5.3986     1.9796     7.1690 C.ar    
  37 C37           -1.1224    -2.1750    -0.0323 C.3     
  38 F38           -2.4289    -2.6749    -0.0127 F       
  39 F39           -0.4718    -2.6156    -1.1898 F       
  40 F40           -0.4309    -2.6329     1.0943 F       
  41 H41           -3.2956    -0.5724     0.0179 H       
  42 H42           -1.2619     3.1763     0.0148 H       
  43 H43           -2.6244     3.7382     0.9597 H       
  44 H44           -4.3149     4.1470     0.5159 H       
  45 H45           -2.9212     5.2538     2.6554 H       
  46 H46           -2.6086     6.4719     4.7464 H       
  47 H47           -2.2425     7.2136     6.3783 H       
  48 H48           -4.6337     3.7162     8.1208 H       
  49 H49           -5.2600     1.2390     3.8773 H       
  50 H50           -3.3028     7.4782    11.5461 H       
  51 H51           -1.9318     9.5504    11.5594 H       
  52 H52           -0.9158    10.3219     9.4273 H       
  53 H53           -6.0792     0.3286     5.9865 H       
  54 H54           -5.7730     1.5597     8.0909 H       
@<TRIPOS>BOND
   1    1    2 ar
   2    1   28 1
   3    1    6 ar
   4    2    3 ar
   5    2   27 1
   6    3    4 ar
   7    3   37 1
   8    4    5 ar
   9    4   41 1
  10    5    6 ar
  11    5    7 1
  12    6   42 1
  13    7    8 1
  14    7    9 1
  15    7   23 1
  16    8   11 1
  17    9   10 1
  18    9   43 1
  19    9   44 1
  20   10   11 2
  21   10   12 1
  22   12   13 ar
  23   12   14 ar
  24   13   22 ar
  25   13   17 ar
  26   14   15 ar
  27   14   45 1
  28   15   16 ar
  29   15   46 1
  30   16   17 ar
  31   16   18 1
  32   17   21 ar
  33   18   19 2
  34   18   20 am
  35   20   29 1
  36   20   47 1
  37   21   36 ar
  38   21   48 1
  39   22   35 ar
  40   22   49 1
  41   23   24 1
  42   23   25 1
  43   23   26 1
  44   29   30 ar
  45   29   31 ar
  46   30   34 ar
  47   31   32 ar
  48   32   33 ar
  49   32   50 1
  50   33   34 ar
  51   33   51 1
  52   34   52 1
  53   35   36 ar
  54   35   53 1
  55   36   54 1
  56   37   38 1
  57   37   39 1
  58   37   40 1

#	End of record

