#	Name: ASD03331250
#	Creating user name:	WinNT
#	Creation time:	15. 06. 2019 20:38

#	Modifying user name:	WinNT
#	Modification time:	15. 06. 2019 20:38

#	Program:	/corina/corina34_cracker 3.40 0067  02.08.2006

@<TRIPOS>MOLECULE
ASD03331250
  65   68    0    0    0
SMALL
NO_CHARGES


@<TRIPOS>ATOM
   1 N1             0.4931     2.8166     1.5215 N.am    
   2 C2             0.2454     1.5476     2.2227 C.3     
   3 C3             0.5437     0.3933     1.2601 C.3     
   4 N4             1.9004     0.5494     0.7189 N.3     
   5 C5             2.0201     1.7814    -0.0722 C.3     
   6 C6             1.7823     2.9926     0.8358 C.3     
   7 C7            -0.4389     3.7900     1.5031 C.2     
   8 O8            -1.5354     3.5912     1.9893 O.2     
   9 N9            -0.1553     4.9839     0.9457 N.am    
  10 C10           -1.1582     5.9513     0.8156 C.ar    
  11 C11           -0.8436     7.2991     0.9286 C.ar    
  12 C12           -1.8356     8.2514     0.7993 C.ar    
  13 C13           -3.1408     7.8640     0.5576 C.ar    
  14 C14           -3.4572     6.5226     0.4446 C.ar    
  15 C15           -2.4690     5.5656     0.5677 C.ar    
  16 C16            2.2895    -0.6249    -0.0735 C.3     
  17 C17            3.5715    -0.3319    -0.8094 C.ar    
  18 C18            4.7881    -0.6162    -0.2176 C.ar    
  19 C19            5.9663    -0.3481    -0.8901 C.ar    
  20 C20            5.9302     0.2045    -2.1555 C.ar    
  21 C21            4.7104     0.4903    -2.7519 C.ar    
  22 C22            3.5299     0.2153    -2.0774 C.ar    
  23 O23            4.6723     1.0345    -3.9966 O.3     
  24 C24            5.9266     1.2863    -4.6332 C.3     
  25 C25            5.6837     1.8950    -6.0158 C.3     
  26 N26            4.9718     3.1717    -5.8705 N.3     
  27 C27            4.7996     3.8293    -7.1722 C.3     
  28 C28            3.9312     5.0781    -7.0034 C.3     
  29 C29            4.6052     6.0324    -6.0137 C.3     
  30 C30            4.8168     5.3077    -4.6815 C.3     
  31 C31            5.6594     4.0523    -4.9176 C.3     
  32 H32            0.8981     1.4767     3.0929 H       
  33 H33           -0.7968     1.5011     2.5384 H       
  34 H34            0.4722    -0.5539     1.7947 H       
  35 H35           -0.1775     0.4055     0.4429 H       
  36 H36            3.0192     1.8409    -0.5038 H       
  37 H37            1.2783     1.7743    -0.8708 H       
  38 H38            1.7561     3.9015     0.2346 H       
  39 H39            2.5826     3.0606     1.5726 H       
  40 H40            0.7439     5.1727     0.6346 H       
  41 H41            0.1755     7.6024     1.1177 H       
  42 H42           -1.5916     9.2998     0.8874 H       
  43 H43           -3.9147     8.6105     0.4572 H       
  44 H44           -4.4776     6.2231     0.2558 H       
  45 H45           -2.7160     4.5184     0.4748 H       
  46 H46            2.4377    -1.4775     0.5893 H       
  47 H47            1.5027    -0.8554    -0.7917 H       
  48 H48            4.8184    -1.0480     0.7719 H       
  49 H49            6.9154    -0.5708    -0.4255 H       
  50 H50            6.8506     0.4143    -2.6800 H       
  51 H51            2.5792     0.4369    -2.5395 H       
  52 H52            6.5085     1.9810    -4.0276 H       
  53 H53            6.4745     0.3501    -4.7396 H       
  54 H54            6.6398     2.0663    -6.5104 H       
  55 H55            5.0828     1.2099    -6.6139 H       
  56 H56            5.7747     4.1155    -7.5663 H       
  57 H57            4.3155     3.1413    -7.8654 H       
  58 H58            3.8166     5.5745    -7.9670 H       
  59 H59            2.9512     4.7911    -6.6224 H       
  60 H60            5.5685     6.3502    -6.4125 H       
  61 H61            3.9692     6.9038    -5.8573 H       
  62 H62            5.3348     5.9683    -3.9862 H       
  63 H63            3.8507     5.0244    -4.2639 H       
  64 H64            5.7999     3.5263    -3.9733 H       
  65 H65            6.6305     4.3375    -5.3223 H       
@<TRIPOS>BOND
   1    1    2 1
   2    1    6 1
   3    1    7 am
   4    2    3 1
   5    2   32 1
   6    2   33 1
   7    3    4 1
   8    3   34 1
   9    3   35 1
  10    4    5 1
  11    4   16 1
  12    5    6 1
  13    5   36 1
  14    5   37 1
  15    6   38 1
  16    6   39 1
  17    7    8 2
  18    7    9 am
  19    9   10 1
  20    9   40 1
  21   10   11 ar
  22   10   15 ar
  23   11   12 ar
  24   11   41 1
  25   12   13 ar
  26   12   42 1
  27   13   14 ar
  28   13   43 1
  29   14   15 ar
  30   14   44 1
  31   15   45 1
  32   16   17 1
  33   16   46 1
  34   16   47 1
  35   17   18 ar
  36   17   22 ar
  37   18   19 ar
  38   18   48 1
  39   19   20 ar
  40   19   49 1
  41   20   21 ar
  42   20   50 1
  43   21   22 ar
  44   21   23 1
  45   22   51 1
  46   23   24 1
  47   24   25 1
  48   24   52 1
  49   24   53 1
  50   25   26 1
  51   25   54 1
  52   25   55 1
  53   26   27 1
  54   26   31 1
  55   27   28 1
  56   27   56 1
  57   27   57 1
  58   28   29 1
  59   28   58 1
  60   28   59 1
  61   29   30 1
  62   29   60 1
  63   29   61 1
  64   30   31 1
  65   30   62 1
  66   30   63 1
  67   31   64 1
  68   31   65 1

#	End of record

