#	Name: ASD01820073
#	Creating user name:	WinNT
#	Creation time:	15. 06. 2019 19:36

#	Modifying user name:	WinNT
#	Modification time:	15. 06. 2019 19:36

#	Program:	/corina/corina34_cracker 3.40 0067  02.08.2006

@<TRIPOS>MOLECULE
ASD01820073
  74   79    0    0    0
SMALL
NO_CHARGES


@<TRIPOS>ATOM
   1 C1            -0.0167     1.3781     0.0096 C.ar    
   2 C2             0.0021    -0.0041     0.0020 C.ar    
   3 C3             1.2063    -0.6904    -0.0131 C.ar    
   4 C4             2.3989     0.0151    -0.0207 C.ar    
   5 C5             2.3798     1.4244    -0.0130 C.ar    
   6 C6             1.1684     2.0970     0.0022 C.ar    
   7 C7             3.8259    -0.3700    -0.0364 C.2     
   8 N8             4.5720     0.7494    -0.0375 N.am    
   9 C9             3.7959     1.8481    -0.0242 C.2     
  10 O10            4.1923     2.9960    -0.0224 O.2     
  11 O11            4.2533    -1.5068    -0.0462 O.2     
  12 C12            8.0623     0.8051    -1.5141 C.3     
  13 N13            8.5370     0.8195    -2.9000 N.ar    
  14 C14            8.7294     1.9775    -3.5008 C.ar    
  15 C15            9.1761     2.0302    -4.8076 C.ar    
  16 C16            9.4222     0.8462    -5.4858 C.ar    
  17 C17            9.2088    -0.3517    -4.8211 C.ar    
  18 C18            8.7657    -0.3259    -3.5122 C.ar    
  19 C19            9.9095     0.8610    -6.9118 C.3     
  20 C20           11.4393     0.8824    -6.9277 C.3     
  21 C21           11.9267     0.8971    -8.3536 C.ar    
  22 C22           12.1396     2.0950    -9.0186 C.ar    
  23 C23           12.5869     2.0693   -10.3260 C.ar    
  24 N24           12.8101     0.9238   -10.9401 N.ar    
  25 C25           12.6181    -0.2341   -10.3391 C.ar    
  26 C26           12.1782    -0.2868    -9.0300 C.ar    
  27 C27           13.2834     0.9382   -12.3265 C.3     
  28 N28           16.7722     0.9944   -13.8066 N.am    
  29 C29           17.5485    -0.1042   -13.8211 C.2     
  30 C30           18.9644     0.3198   -13.8405 C.ar    
  31 C31           18.9450     1.7291   -13.8362 C.ar    
  32 C32           17.5180     2.1139   -13.8143 C.2     
  33 C33           20.1758    -0.3526   -13.8601 C.ar    
  34 C34           21.3607     0.3665   -13.8754 C.ar    
  35 C35           21.3417     1.7486   -13.8707 C.ar    
  36 C36           20.1375     2.4347   -13.8523 C.ar    
  37 O37           17.0904     3.2506   -13.8056 O.2     
  38 O38           17.1523    -1.2522   -13.8182 O.2     
  39 C39            6.5325     0.7843    -1.4992 C.3     
  40 C40           14.8131     0.9592   -12.3429 C.3     
  41 C41            6.0368     0.7693    -0.0518 C.3     
  42 C42           15.3074     0.9742   -13.7908 C.3     
  43 H43           -0.9613     1.9015     0.0169 H       
  44 H44           -0.9280    -0.5530     0.0083 H       
  45 H45            1.2149    -1.7703    -0.0187 H       
  46 H46            1.1477     3.1767     0.0078 H       
  47 H47            8.4427    -0.0827    -1.0089 H       
  48 H48            8.4186     1.6971    -0.9988 H       
  49 H49            8.5354     2.8952    -2.9656 H       
  50 H50            9.3311     2.9817    -5.2945 H       
  51 H51            9.3898    -1.2930    -5.3186 H       
  52 H52            8.5975    -1.2546    -2.9873 H       
  53 H53            9.5533    -0.0312    -7.4268 H       
  54 H54            9.5285     1.7486    -7.4168 H       
  55 H55           11.7956     1.7745    -6.4127 H       
  56 H56           11.8204    -0.0052    -6.4227 H       
  57 H57           11.9579     3.0363    -8.5212 H       
  58 H58           12.7552     2.9980   -10.8509 H       
  59 H59           12.8114    -1.1519   -10.8746 H       
  60 H60           12.0231    -1.2383    -8.5431 H       
  61 H61           12.9267     0.0461   -12.8414 H       
  62 H62           12.9023     1.8259   -12.8313 H       
  63 H63           20.1966    -1.4324   -13.8632 H       
  64 H64           22.3053    -0.1568   -13.8907 H       
  65 H65           22.2716     2.2977   -13.8820 H       
  66 H66           20.1286     3.5147   -13.8489 H       
  67 H67            6.1521     1.6721    -2.0043 H       
  68 H68            6.1762    -0.1077    -2.0145 H       
  69 H69           15.1698     1.8513   -11.8280 H       
  70 H70           15.1942     0.0715   -11.8381 H       
  71 H71            6.3931     1.6613     0.4635 H       
  72 H72            6.4172    -0.1185     0.4534 H       
  73 H73           14.9264     1.8619   -14.2957 H       
  74 H74           14.9508     0.0821   -14.3057 H       
@<TRIPOS>BOND
   1    1    2 ar
   2    1    6 ar
   3    1   43 1
   4    2    3 ar
   5    2   44 1
   6    3    4 ar
   7    3   45 1
   8    4    5 ar
   9    4    7 1
  10    5    6 ar
  11    5    9 1
  12    6   46 1
  13    7    8 am
  14    7   11 2
  15    8    9 am
  16    8   41 1
  17    9   10 2
  18   12   13 1
  19   12   39 1
  20   12   47 1
  21   12   48 1
  22   13   14 ar
  23   13   18 ar
  24   14   15 ar
  25   14   49 1
  26   15   16 ar
  27   15   50 1
  28   16   17 ar
  29   16   19 1
  30   17   18 ar
  31   17   51 1
  32   18   52 1
  33   19   20 1
  34   19   53 1
  35   19   54 1
  36   20   21 1
  37   20   55 1
  38   20   56 1
  39   21   22 ar
  40   21   26 ar
  41   22   23 ar
  42   22   57 1
  43   23   24 ar
  44   23   58 1
  45   24   25 ar
  46   24   27 1
  47   25   26 ar
  48   25   59 1
  49   26   60 1
  50   27   40 1
  51   27   61 1
  52   27   62 1
  53   28   29 am
  54   28   32 am
  55   28   42 1
  56   29   30 1
  57   29   38 2
  58   30   31 ar
  59   30   33 ar
  60   31   32 1
  61   31   36 ar
  62   32   37 2
  63   33   34 ar
  64   33   63 1
  65   34   35 ar
  66   34   64 1
  67   35   36 ar
  68   35   65 1
  69   36   66 1
  70   39   41 1
  71   39   67 1
  72   39   68 1
  73   40   42 1
  74   40   69 1
  75   40   70 1
  76   41   71 1
  77   41   72 1
  78   42   73 1
  79   42   74 1

#	End of record

