#	Name: ASD01917773
#	Creating user name:	WinNT
#	Creation time:	15. 06. 2019 20:10

#	Modifying user name:	WinNT
#	Modification time:	15. 06. 2019 20:10

#	Program:	/corina/corina34_cracker 3.40 0067  02.08.2006

@<TRIPOS>MOLECULE
ASD01917773
  42   45    0    0    0
SMALL
NO_CHARGES


@<TRIPOS>ATOM
   1 C1             0.0235     1.2352    -0.1574 C.2     
   2 C2            -0.0101    -0.1110    -0.1319 C.2     
   3 C3            -1.2708    -0.9333    -0.0450 C.3     
   4 C4            -2.4123    -0.0386     0.4541 C.3     
   5 N5            -2.3760     1.2395    -0.2724 N.am    
   6 C6            -1.2021     2.1129    -0.0920 C.3     
   7 C7            -3.3897     1.6029    -1.0828 C.2     
   8 O8            -4.2896     0.8210    -1.3182 O.2     
   9 C9            -3.4069     2.9559    -1.6865 C.ar    
  10 O10            1.3084     1.6038    -0.2425 O.3     
  11 C11            2.0494     0.4846    -0.2649 C.2     
  12 N12            1.2546    -0.5482    -0.1978 N.2     
  13 C13            3.5528     0.4299    -0.3535 C.3     
  14 O14            3.9478     0.3870    -1.7261 O.3     
  15 C15            5.2813     0.3347    -1.9830 C.ar    
  16 C16            5.7353     0.2911    -3.2932 C.ar    
  17 C17            7.0913     0.2379    -3.5517 C.ar    
  18 C18            7.9958     0.2282    -2.5060 C.ar    
  19 C19            7.5458     0.2711    -1.1993 C.ar    
  20 C20            6.1911     0.3306    -0.9356 C.ar    
  21 C21           -4.3657     3.2717    -2.6460 C.ar    
  22 C22           -4.3696     4.5418    -3.2015 C.ar    
  23 C23           -3.4139     5.4516    -2.7777 C.ar    
  24 C24           -2.4895     5.0686    -1.8185 C.ar    
  25 N25           -2.5118     3.8586    -1.3044 N.ar    
  26 H26           -1.5191    -1.3264    -1.0308 H       
  27 H27           -1.1216    -1.7579     0.6521 H       
  28 H28           -3.3673    -0.5326     0.2749 H       
  29 H29           -2.2908     0.1455     1.5216 H       
  30 H30           -1.2528     2.6069     0.8783 H       
  31 H31           -1.1682     2.8577    -0.8871 H       
  32 H32            3.9771     1.3157     0.1192 H       
  33 H33            3.9146    -0.4628     0.1568 H       
  34 H34            5.0292     0.2983    -4.1104 H       
  35 H35            7.4452     0.2036    -4.5715 H       
  36 H36            9.0555     0.1866    -2.7102 H       
  37 H37            8.2543     0.2627    -0.3842 H       
  38 H38            5.8401     0.3642     0.0852 H       
  39 H39           -5.0957     2.5374    -2.9531 H       
  40 H40           -5.1004     4.8160    -3.9479 H       
  41 H41           -3.3895     6.4491    -3.1909 H       
  42 H42           -1.7434     5.7751    -1.4859 H       
@<TRIPOS>BOND
   1    1    2 2
   2    1   10 1
   3    1    6 1
   4    2    3 1
   5    2   12 1
   6    3    4 1
   7    3   26 1
   8    3   27 1
   9    4    5 1
  10    4   28 1
  11    4   29 1
  12    5    6 1
  13    5    7 am
  14    6   30 1
  15    6   31 1
  16    7    8 2
  17    7    9 1
  18    9   21 ar
  19    9   25 ar
  20   10   11 1
  21   11   12 2
  22   11   13 1
  23   13   14 1
  24   13   32 1
  25   13   33 1
  26   14   15 1
  27   15   16 ar
  28   15   20 ar
  29   16   17 ar
  30   16   34 1
  31   17   18 ar
  32   17   35 1
  33   18   19 ar
  34   18   36 1
  35   19   20 ar
  36   19   37 1
  37   20   38 1
  38   21   22 ar
  39   21   39 1
  40   22   23 ar
  41   22   40 1
  42   23   24 ar
  43   23   41 1
  44   24   25 ar
  45   24   42 1

#	End of record

