#	Name: ASD02030020
#	Creating user name:	WinNT
#	Creation time:	15. 06. 2019 20:14

#	Modifying user name:	WinNT
#	Modification time:	15. 06. 2019 20:14

#	Program:	/corina/corina34_cracker 3.40 0067  02.08.2006

@<TRIPOS>MOLECULE
ASD02030020
  52   53    0    0    0
SMALL
NO_CHARGES


@<TRIPOS>ATOM
   1 C1            -0.0167     1.3802     0.0096 C.ar    
   2 C2             0.0021    -0.0041     0.0020 C.ar    
   3 C3            -1.1870    -0.7112     0.0095 C.ar    
   4 C4            -2.3926    -0.0358     0.0246 C.ar    
   5 C5            -2.4114     1.3467     0.0318 C.ar    
   6 C6            -1.2244     2.0547     0.0305 C.ar    
   7 Cl7            1.4744     2.2691     0.0002 Cl      
   8 Cl8            1.5168    -0.8520    -0.0175 Cl      
   9 C9            -3.6876    -0.8065     0.0328 C.3     
  10 C10           -4.1121    -1.0751     1.4780 C.3     
  11 N11           -5.3744    -1.8264     1.4859 N.3     
  12 C12           -5.8137    -2.1031     2.8601 C.3     
  13 C13           -7.1284    -2.8851     2.8276 C.3     
  14 C14           -7.5859    -3.1732     4.2589 C.3     
  15 O15           -8.7496    -4.0020     4.2292 O.3     
  16 O16           -8.1253    -2.1131     2.1551 O.3     
  17 C17           -9.2879    -4.3537     5.4276 C.ar    
  18 C18          -10.4180    -5.1567     5.4710 C.ar    
  19 C19          -10.9650    -5.5147     6.6875 C.ar    
  20 C20          -10.3833    -5.0704     7.8676 C.ar    
  21 C21           -9.2520    -4.2664     7.8233 C.ar    
  22 C22           -8.7032    -3.9138     6.6059 C.ar    
  23 N23          -10.9372    -5.4322     9.1007 N.am    
  24 S24           -9.9877    -5.4656    10.4570 S.o2    
  25 C25          -10.1216    -3.7924    11.1447 C.3     
  26 O26          -10.6260    -6.4073    11.3085 O.2     
  27 O27           -8.6764    -5.6975     9.9611 O.2     
  28 C28          -12.3571    -5.7814     9.1917 C.3     
  29 H29           -1.1730    -1.7911     0.0032 H       
  30 H30           -3.3540     1.8736     0.0432 H       
  31 H31           -1.2398     3.1346     0.0361 H       
  32 H32           -4.4598    -0.2249    -0.4706 H       
  33 H33           -3.5495    -1.7544    -0.4875 H       
  34 H34           -3.3399    -1.6568     1.9814 H       
  35 H35           -4.2501    -0.1273     1.9982 H       
  36 H36           -6.0897    -1.3371     0.9692 H       
  37 H37           -5.0533    -2.6919     3.3731 H       
  38 H38           -5.9636    -1.1624     3.3900 H       
  39 H39           -6.9785    -3.8258     2.2978 H       
  40 H40           -6.7892    -3.6846     4.7990 H       
  41 H41           -7.8210    -2.2347     4.7610 H       
  42 H42           -8.3106    -1.2607     2.5725 H       
  43 H43          -10.8705    -5.5019     4.5531 H       
  44 H44          -11.8452    -6.1397     6.7211 H       
  45 H45           -8.7989    -3.9204     8.7406 H       
  46 H46           -7.8230    -3.2888     6.5713 H       
  47 H47          -11.1639    -3.5797    11.3827 H       
  48 H48           -9.5204    -3.7229    12.0512 H       
  49 H49           -9.7611    -3.0691    10.4133 H       
  50 H50          -12.4790    -6.8523     9.0289 H       
  51 H51          -12.7331    -5.5191    10.1806 H       
  52 H52          -12.9155    -5.2327     8.4334 H       
@<TRIPOS>BOND
   1    1    2 ar
   2    1    7 1
   3    1    6 ar
   4    2    3 ar
   5    2    8 1
   6    3    4 ar
   7    3   29 1
   8    4    5 ar
   9    4    9 1
  10    5    6 ar
  11    5   30 1
  12    6   31 1
  13    9   10 1
  14    9   32 1
  15    9   33 1
  16   10   11 1
  17   10   34 1
  18   10   35 1
  19   11   12 1
  20   11   36 1
  21   12   13 1
  22   12   37 1
  23   12   38 1
  24   13   14 1
  25   13   16 1
  26   13   39 1
  27   14   15 1
  28   14   40 1
  29   14   41 1
  30   15   17 1
  31   16   42 1
  32   17   18 ar
  33   17   22 ar
  34   18   19 ar
  35   18   43 1
  36   19   20 ar
  37   19   44 1
  38   20   21 ar
  39   20   23 1
  40   21   22 ar
  41   21   45 1
  42   22   46 1
  43   23   24 am
  44   23   28 1
  45   24   25 1
  46   24   26 2
  47   24   27 2
  48   25   47 1
  49   25   48 1
  50   25   49 1
  51   28   50 1
  52   28   51 1
  53   28   52 1

#	End of record

