#	Name: ASD01882613
#	Creating user name:	WinNT
#	Creation time:	15. 06. 2019 19:44

#	Modifying user name:	WinNT
#	Modification time:	15. 06. 2019 19:44

#	Program:	/corina/corina34_cracker 3.40 0067  02.08.2006

@<TRIPOS>MOLECULE
ASD01882613
  48   50    0    0    0
SMALL
NO_CHARGES


@<TRIPOS>ATOM
   1 N1            -0.0159     1.3193     0.0093 N.ar    
   2 C2             0.0021    -0.0041     0.0020 C.ar    
   3 C3             1.2041    -0.7042    -0.0128 C.ar    
   4 C4             2.3966    -0.0013    -0.0204 C.ar    
   5 C5             1.1037     2.0274     0.0024 C.ar    
   6 N6             1.3603     3.3924     0.0068 N.am    
   7 C7             2.3438     1.3866    -0.0129 C.ar    
   8 N8             3.3170     2.3850    -0.0170 N.am    
   9 C9             2.6932     3.5785    -0.0051 C.2     
  10 N10           -1.1999    -0.7059     0.0097 N.3     
  11 C11            0.3492     4.4524     0.0216 C.3     
  12 O12            3.2500     4.6605    -0.0051 O.2     
  13 C13            4.7664     2.1725    -0.0316 C.3     
  14 C14            5.2575     2.1059    -1.4791 C.3     
  15 C15            4.9274     3.4195    -2.1907 C.3     
  16 C16            6.7713     1.8840    -1.4944 C.3     
  17 C17            4.5650     0.9474    -2.1997 C.3     
  18 C18           -3.6435    -0.5862    -0.1131 C.3     
  19 C19           -3.7492    -1.5838     1.0438 C.3     
  20 C20           -2.5203    -2.4972     1.0336 C.3     
  21 C21           -1.2549    -1.6430     1.1390 C.3     
  22 C22           -2.3455     0.2126     0.0256 C.3     
  23 H23            1.2069    -1.7842    -0.0179 H       
  24 H24            3.3443    -0.5191    -0.0315 H       
  25 H25            0.1080     4.7102     1.0529 H       
  26 H26            0.7376     5.3322    -0.4915 H       
  27 H27           -0.5503     4.1036    -0.4856 H       
  28 H28            5.2598     2.9978     0.4818 H       
  29 H29            5.0016     1.2367     0.4754 H       
  30 H30            5.4207     4.2448    -1.6773 H       
  31 H31            5.2772     3.3720    -3.2219 H       
  32 H32            3.8489     3.5775    -2.1798 H       
  33 H33            7.0064     0.9482    -0.9874 H       
  34 H34            7.1211     1.8365    -2.5256 H       
  35 H35            7.2646     2.7093    -0.9810 H       
  36 H36            3.4865     1.1055    -2.1889 H       
  37 H37            4.9148     0.8999    -3.2310 H       
  38 H38            4.8002     0.0116    -1.6928 H       
  39 H39           -3.6391    -1.1262    -1.0599 H       
  40 H40           -4.4944     0.0944    -0.0855 H       
  41 H41           -3.7928    -1.0423     1.9888 H       
  42 H42           -4.6508    -2.1848     0.9253 H       
  43 H43           -2.5688    -3.1818     1.8804 H       
  44 H44           -2.4983    -3.0672     0.1048 H       
  45 H45           -0.3776    -2.2894     1.1177 H       
  46 H46           -1.2711    -1.0837     2.0745 H       
  47 H47           -2.3566     0.7631     0.9663 H       
  48 H48           -2.2603     0.9139    -0.8045 H       
@<TRIPOS>BOND
   1    1    2 ar
   2    1    5 ar
   3    2    3 ar
   4    2   10 1
   5    3    4 ar
   6    3   23 1
   7    4    7 ar
   8    4   24 1
   9    5    7 ar
  10    5    6 1
  11    6    9 am
  12    6   11 1
  13    7    8 1
  14    8    9 am
  15    8   13 1
  16    9   12 2
  17   10   22 1
  18   10   21 1
  19   11   25 1
  20   11   26 1
  21   11   27 1
  22   13   14 1
  23   13   28 1
  24   13   29 1
  25   14   15 1
  26   14   16 1
  27   14   17 1
  28   15   30 1
  29   15   31 1
  30   15   32 1
  31   16   33 1
  32   16   34 1
  33   16   35 1
  34   17   36 1
  35   17   37 1
  36   17   38 1
  37   18   19 1
  38   18   22 1
  39   18   39 1
  40   18   40 1
  41   19   20 1
  42   19   41 1
  43   19   42 1
  44   20   21 1
  45   20   43 1
  46   20   44 1
  47   21   45 1
  48   21   46 1
  49   22   47 1
  50   22   48 1

#	End of record

