#	Name: ASD01885572
#	Creating user name:	WinNT
#	Creation time:	15. 06. 2019 19:49

#	Modifying user name:	WinNT
#	Modification time:	15. 06. 2019 19:49

#	Program:	/corina/corina34_cracker 3.40 0067  02.08.2006

@<TRIPOS>MOLECULE
ASD01885572
  50   54    0    0    0
SMALL
NO_CHARGES


@<TRIPOS>ATOM
   1 C1            -0.0684     1.4746     0.0287 C.ar    
   2 C2            -0.0217     0.0894    -0.1278 C.ar    
   3 C3            -1.1900    -0.6433    -0.1262 C.ar    
   4 C4            -2.4122    -0.0041     0.0309 C.ar    
   5 C5            -2.4630     1.3764     0.1867 C.ar    
   6 C6            -1.2976     2.1142     0.1922 C.ar    
   7 C7             1.1849     2.2644     0.0273 C.2     
   8 O8            -3.5612    -0.7291     0.0320 O.3     
   9 C9             2.1407     2.0909     1.0579 C.2     
  10 C10            3.2787     2.8098     1.0552 C.2     
  11 N11            3.5327     3.7148     0.0645 N.pl3   
  12 C12            2.6322     3.9133    -0.9539 C.2     
  13 C13            1.4359     3.1746    -0.9836 C.2     
  14 C14            4.5709     4.5587    -0.1879 C.2     
  15 N15            4.2914     5.2096    -1.2876 N.2     
  16 N16            3.1495     4.8372    -1.7491 N.2     
  17 C17            5.8155     4.7145     0.6475 C.3     
  18 C18            6.8854     3.7375     0.1558 C.3     
  19 Cl19           0.2856     3.4112    -2.2620 Cl      
  20 Cl20          -3.9938     2.1714     0.3822 Cl      
  21 C21           -4.2269    -0.8714    -1.1441 C.ar    
  22 C22           -3.7753    -0.2292    -2.2927 C.ar    
  23 C23           -4.4875    -0.4046    -3.4684 C.ar    
  24 C24           -5.6142    -1.2053    -3.4618 C.ar    
  25 N25           -6.0157    -1.8002    -2.3554 N.ar    
  26 C26           -5.3637    -1.6640    -1.2181 C.ar    
  27 C27           -6.3946    -1.4007    -4.7361 C.3     
  28 C28           -5.8652    -2.3657     0.0177 C.3     
  29 C29            8.2696     3.8218     0.8021 C.3     
  30 C30            7.3448     2.6465     1.1251 C.3     
  31 H31            0.9286    -0.4088    -0.2504 H       
  32 H32           -1.1540    -1.7159    -0.2476 H       
  33 H33           -1.3372     3.1866     0.3132 H       
  34 H34            1.9557     1.3794     1.8491 H       
  35 H35            3.9998     2.6694     1.8467 H       
  36 H36            6.1873     5.7353     0.5586 H       
  37 H37            5.5817     4.5025     1.6908 H       
  38 H38            6.8390     3.4834    -0.9031 H       
  39 H39           -2.8916     0.3911    -2.2686 H       
  40 H40           -4.1663     0.0790    -4.3791 H       
  41 H41           -6.0033    -2.2650    -5.2729 H       
  42 H42           -7.4450    -1.5664    -4.4971 H       
  43 H43           -6.2998    -0.5120    -5.3601 H       
  44 H44           -5.4108    -3.3543     0.0839 H       
  45 H45           -5.5985    -1.7834     0.8997 H       
  46 H46           -6.9491    -2.4670    -0.0366 H       
  47 H47            9.1339     3.6228     0.1684 H       
  48 H48            8.4181     4.5733     1.5775 H       
  49 H49            6.8849     2.6248     2.1131 H       
  50 H50            7.6007     1.6743     0.7040 H       
@<TRIPOS>BOND
   1    1    2 ar
   2    1    7 1
   3    1    6 ar
   4    2    3 ar
   5    2   31 1
   6    3    4 ar
   7    3   32 1
   8    4    5 ar
   9    4    8 1
  10    5    6 ar
  11    5   20 1
  12    6   33 1
  13    7    9 1
  14    7   13 2
  15    8   21 1
  16    9   10 2
  17    9   34 1
  18   10   11 1
  19   10   35 1
  20   11   12 1
  21   11   14 1
  22   12   13 1
  23   12   16 2
  24   13   19 1
  25   14   15 2
  26   14   17 1
  27   15   16 1
  28   17   18 1
  29   17   36 1
  30   17   37 1
  31   18   29 1
  32   18   30 1
  33   18   38 1
  34   21   22 ar
  35   21   26 ar
  36   22   23 ar
  37   22   39 1
  38   23   24 ar
  39   23   40 1
  40   24   25 ar
  41   24   27 1
  42   25   26 ar
  43   26   28 1
  44   27   41 1
  45   27   42 1
  46   27   43 1
  47   28   44 1
  48   28   45 1
  49   28   46 1
  50   29   30 1
  51   29   47 1
  52   29   48 1
  53   30   49 1
  54   30   50 1

#	End of record

