#	Name: ASD05940022
#	Creating user name:	WinNT
#	Creation time:	15. 06. 2019 21:04

#	Modifying user name:	WinNT
#	Modification time:	15. 06. 2019 21:04

#	Program:	/corina/corina34_cracker 3.40 0067  02.08.2006

@<TRIPOS>MOLECULE
ASD05940022
  63   66    0    0    0
SMALL
NO_CHARGES


@<TRIPOS>ATOM
   1 N1            -0.0061     1.3298    -0.0083 N.ar    
   2 C2             0.0072     0.0075    -0.0155 C.ar    
   3 N3             1.1346    -0.6855    -0.0215 N.ar    
   4 C4             2.3116    -0.0647    -0.0209 C.ar    
   5 C5             2.3372     1.3290    -0.0176 C.ar    
   6 C6             1.1319     2.0244    -0.0093 C.ar    
   7 N7             3.4936    -0.7851    -0.0182 N.3     
   8 C8             4.5415    -0.1284    -0.8058 C.3     
   9 C9             4.6745     1.3152    -0.3948 C.2     
  10 N10            3.5698     2.0038    -0.0266 N.am    
  11 N11            1.1148     3.4126    -0.0030 N.pl3   
  12 O12           -1.1723    -0.6598    -0.0163 O.3     
  13 C13            3.2722    -2.1617    -0.4807 C.3     
  14 O14            5.7611     1.8546    -0.3945 O.2     
  15 C15           -2.3639     0.1289    -0.0092 C.3     
  16 C16           -3.5854    -0.7925    -0.0112 C.3     
  17 C17           -4.8612     0.0520    -0.0036 C.3     
  18 C18           -6.0827    -0.8694    -0.0057 C.3     
  19 C19            4.6010    -2.8351    -0.7081 C.ar    
  20 C20            4.7774    -3.6656    -1.7993 C.ar    
  21 C21            5.6452    -2.6181     0.1710 C.ar    
  22 C22            6.8643    -3.2358    -0.0377 C.ar    
  23 C23            7.0388    -4.0709    -1.1252 C.ar    
  24 C24            5.9961    -4.2832    -2.0079 C.ar    
  25 C25            2.4833    -2.9348     0.5781 C.3     
  26 C26            6.1863    -5.1936    -3.1937 C.3     
  27 N27            5.8245    -6.5673    -2.8194 N.3     
  28 C28            5.7683    -7.4408    -4.0059 C.3     
  29 C29            6.7422    -8.6119    -3.7579 C.3     
  30 C30            6.8687    -8.6399    -2.2119 C.3     
  31 C31            6.8028    -7.1315    -1.8653 C.3     
  32 H32            5.4903    -0.6393    -0.6418 H       
  33 H33            4.2842    -0.1804    -1.8637 H       
  34 H34            3.6269     2.9391     0.2243 H       
  35 H35            1.9488     3.9079    -0.0044 H       
  36 H36            0.2688     3.8872     0.0028 H       
  37 H37            2.7087    -2.1454    -1.4136 H       
  38 H38           -2.3812     0.7531     0.8843 H       
  39 H39           -2.3854     0.7627    -0.8957 H       
  40 H40           -3.5681    -1.4167    -0.9047 H       
  41 H41           -3.5639    -1.4263     0.8753 H       
  42 H42           -4.8784     0.6761     0.8898 H       
  43 H43           -4.8827     0.6858    -0.8901 H       
  44 H44           -6.9916    -0.2678    -0.0002 H       
  45 H45           -6.0654    -1.4936    -0.8991 H       
  46 H46           -6.0612    -1.5032     0.8808 H       
  47 H47            3.9627    -3.8319    -2.4885 H       
  48 H48            5.5089    -1.9656     1.0208 H       
  49 H49            7.6805    -3.0657     0.6489 H       
  50 H50            7.9912    -4.5532    -1.2884 H       
  51 H51            1.5607    -2.4008     0.8057 H       
  52 H52            2.2440    -3.9284     0.1993 H       
  53 H53            3.0832    -3.0259     1.4836 H       
  54 H54            5.5494    -4.8606    -4.0132 H       
  55 H55            7.2292    -5.1658    -3.5096 H       
  56 H56            4.7558    -7.8222    -4.1379 H       
  57 H57            6.0756    -6.8841    -4.8911 H       
  58 H58            6.3219    -9.5474    -4.1271 H       
  59 H59            7.7091    -8.4136    -4.2202 H       
  60 H60            6.0363    -9.1807    -1.7617 H       
  61 H61            7.8226    -9.0695    -1.9059 H       
  62 H62            7.7792    -6.6673    -2.0038 H       
  63 H63            6.4574    -6.9923    -0.8408 H       
@<TRIPOS>BOND
   1    1    2 ar
   2    1    6 ar
   3    2    3 ar
   4    2   12 1
   5    3    4 ar
   6    4    5 ar
   7    4    7 1
   8    5    6 ar
   9    5   10 1
  10    6   11 1
  11    7    8 1
  12    7   13 1
  13    8    9 1
  14    8   32 1
  15    8   33 1
  16    9   10 am
  17    9   14 2
  18   10   34 1
  19   11   35 1
  20   11   36 1
  21   12   15 1
  22   13   19 1
  23   13   25 1
  24   13   37 1
  25   15   16 1
  26   15   38 1
  27   15   39 1
  28   16   17 1
  29   16   40 1
  30   16   41 1
  31   17   18 1
  32   17   42 1
  33   17   43 1
  34   18   44 1
  35   18   45 1
  36   18   46 1
  37   19   20 ar
  38   19   21 ar
  39   20   24 ar
  40   20   47 1
  41   21   22 ar
  42   21   48 1
  43   22   23 ar
  44   22   49 1
  45   23   24 ar
  46   23   50 1
  47   24   26 1
  48   25   51 1
  49   25   52 1
  50   25   53 1
  51   26   27 1
  52   26   54 1
  53   26   55 1
  54   27   28 1
  55   27   31 1
  56   28   29 1
  57   28   56 1
  58   28   57 1
  59   29   30 1
  60   29   58 1
  61   29   59 1
  62   30   31 1
  63   30   60 1
  64   30   61 1
  65   31   62 1
  66   31   63 1

#	End of record

