#	Name: ASD08070221
#	Creating user name:	WinNT
#	Creation time:	15. 06. 2019 21:14

#	Modifying user name:	WinNT
#	Modification time:	15. 06. 2019 21:14

#	Program:	/corina/corina34_cracker 3.40 0067  02.08.2006

@<TRIPOS>MOLECULE
ASD08070221
  39   39    0    0    0
SMALL
NO_CHARGES


@<TRIPOS>ATOM
   1 C1            -0.0462     1.4453     0.5161 C.ar    
   2 C2            -0.0323     0.0713     0.3642 C.ar    
   3 C3             1.1701    -0.6033     0.2272 C.ar    
   4 C4             2.3758     0.1129     0.2426 C.ar    
   5 C5             2.3499     1.5067     0.3968 C.ar    
   6 C6             1.1364     2.1611     0.5327 C.ar    
   7 C7             3.6596    -0.5934     0.0983 C.2     
   8 N8             4.3077    -1.0434     1.1910 N.am    
   9 O9             4.1353    -0.7708    -1.0069 O.2     
  10 C10            6.7229    -0.7260     0.9731 C.3     
  11 C11            5.5851    -1.7461     1.0475 C.3     
  12 C12            4.6053    -3.6077     2.3954 C.3     
  13 C13            5.8007    -2.6635     2.2529 C.3     
  14 O14            1.1811    -1.9518     0.0792 O.3     
  15 C15            6.5868     0.0971    -0.3095 C.3     
  16 C16            7.0764    -3.4831     2.0482 C.3     
  17 O17            3.5090     2.2113     0.4139 O.3     
  18 C18            6.6539     0.2044     2.1857 C.3     
  19 H19           -0.9881     1.9638     0.6181 H       
  20 H20           -0.9620    -0.4782     0.3526 H       
  21 H21            1.1141     3.2343     0.6516 H       
  22 H22            3.9283    -0.9019     2.0725 H       
  23 H23            7.6796    -1.2483     0.9698 H       
  24 H24            5.5713    -2.3423     0.1351 H       
  25 H25            3.6965    -3.0239     2.5412 H       
  26 H26            4.5089    -4.2107     1.4926 H       
  27 H27            4.7589    -4.2613     3.2541 H       
  28 H28            5.8972    -2.0605     3.1557 H       
  29 H29            1.1381    -2.2468    -0.8407 H       
  30 H30            5.6301     0.6194    -0.3063 H       
  31 H31            7.3974     0.8238    -0.3626 H       
  32 H32            6.6360    -0.5657    -1.1735 H       
  33 H33            7.0175    -4.0161     1.0993 H       
  34 H34            7.9387    -2.8165     2.0376 H       
  35 H35            7.1818    -4.2005     2.8620 H       
  36 H36            3.7995     2.5118    -0.4582 H       
  37 H37            5.7352     0.7895     2.1430 H       
  38 H38            6.6645    -0.3890     3.1000 H       
  39 H39            7.5127     0.8755     2.1782 H       
@<TRIPOS>BOND
   1    1    2 ar
   2    1    6 ar
   3    1   19 1
   4    2    3 ar
   5    2   20 1
   6    3    4 ar
   7    3   14 1
   8    4    5 ar
   9    4    7 1
  10    5    6 ar
  11    5   17 1
  12    6   21 1
  13    7    8 am
  14    7    9 2
  15    8   11 1
  16    8   22 1
  17   10   11 1
  18   10   15 1
  19   10   18 1
  20   10   23 1
  21   11   13 1
  22   11   24 1
  23   12   13 1
  24   12   25 1
  25   12   26 1
  26   12   27 1
  27   13   16 1
  28   13   28 1
  29   14   29 1
  30   15   30 1
  31   15   31 1
  32   15   32 1
  33   16   33 1
  34   16   34 1
  35   16   35 1
  36   17   36 1
  37   18   37 1
  38   18   38 1
  39   18   39 1

#	End of record

