#	Name: ASD01200404
#	Creating user name:	WinNT
#	Creation time:	15. 06. 2019 19:09

#	Modifying user name:	WinNT
#	Modification time:	15. 06. 2019 19:09

#	Program:	/corina/corina34_cracker 3.40 0067  02.08.2006

@<TRIPOS>MOLECULE
ASD01200404
  55   59    0    0    0
SMALL
NO_CHARGES


@<TRIPOS>ATOM
   1 C1             0.3064     1.0902     1.6212 C.ar    
   2 C2             0.2290    -0.2175     1.1316 C.ar    
   3 C3             1.3052    -0.7581     0.4576 C.ar    
   4 C4             2.4629    -0.0070     0.2656 C.ar    
   5 C5             2.5510     1.2811     0.7434 C.ar    
   6 C6             3.6303    -0.6107    -0.4718 C.3     
   7 C7             3.4493    -0.4338    -1.9957 C.3     
   8 C8             4.2212     0.8808    -2.2544 C.3     
   9 C9             5.2191     0.9544    -1.1198 C.2     
  10 N10            4.8670     0.1058    -0.1386 N.am    
  11 C11           -0.6204     1.9515     2.3530 C.2     
  12 C12            1.4775     1.8460     1.4249 C.ar    
  13 N13            1.2735     3.0803     2.0041 N.pl3   
  14 C14            0.0146     3.1325     2.5576 C.2     
  15 C15            5.6208    -0.0799     1.1038 C.3     
  16 O16            1.2356    -2.0290    -0.0206 O.3     
  17 O17            6.1953     1.6739    -1.0988 O.2     
  18 C18           -0.5591     4.2981     3.2627 C.ar    
  19 N19           -1.7921     4.2306     3.7530 N.ar    
  20 C20           -2.3389     5.2472     4.3874 C.ar    
  21 C21           -1.6444     6.4296     4.5666 C.ar    
  22 C22           -0.3532     6.5435     4.0703 C.ar    
  23 C23            0.2003     5.4588     3.4131 C.ar    
  24 C24            0.0531    -2.6890     0.0917 C.ar    
  25 C25           -2.1008    -3.2761    -0.7472 C.ar    
  26 C26           -2.2902    -4.0410     0.3888 C.ar    
  27 N27           -1.3584    -4.1141     1.3188 N.ar    
  28 C28           -0.2126    -3.4720     1.2057 C.ar    
  29 C29           -0.9111    -2.5847    -0.9064 C.ar    
  30 S30           -3.8003    -4.9241     0.6002 S.o2    
  31 O31           -3.9345    -5.0565     2.0087 O.2     
  32 O32           -4.7472    -4.1859    -0.1598 O.2     
  33 C33           -3.4907    -6.5397    -0.1644 C.3     
  34 H34           -0.6675    -0.8010     1.2803 H       
  35 H35            3.4537     1.8536     0.5889 H       
  36 H36            3.7267    -1.6677    -0.2236 H       
  37 H37            3.8987    -1.2638    -2.5409 H       
  38 H38            2.3958    -0.3247    -2.2533 H       
  39 H39            4.7368     0.8380    -3.2137 H       
  40 H40            3.5434     1.7339    -2.2222 H       
  41 H41           -1.6208     1.6963     2.6701 H       
  42 H42            1.9197     3.8036     2.0184 H       
  43 H43            6.3590    -0.8700     0.9662 H       
  44 H44            6.1276     0.8495     1.3637 H       
  45 H45            4.9368    -0.3573     1.9058 H       
  46 H46           -3.3438     5.1561     4.7727 H       
  47 H47           -2.1027     7.2572     5.0877 H       
  48 H48            0.2085     7.4571     4.1977 H       
  49 H49            1.2042     5.5115     3.0185 H       
  50 H50           -2.8694    -3.2223    -1.5041 H       
  51 H51            0.5270    -3.5567     1.9882 H       
  52 H52           -0.7361    -1.9792    -1.7835 H       
  53 H53           -2.6590    -7.0284     0.3431 H       
  54 H54           -4.3834    -7.1593    -0.0786 H       
  55 H55           -3.2437    -6.4021    -1.2171 H       
@<TRIPOS>BOND
   1    1    2 ar
   2    1   12 ar
   3    1   11 1
   4    2    3 ar
   5    2   34 1
   6    3    4 ar
   7    3   16 1
   8    4    5 ar
   9    4    6 1
  10    5   12 ar
  11    5   35 1
  12    6    7 1
  13    6   10 1
  14    6   36 1
  15    7    8 1
  16    7   37 1
  17    7   38 1
  18    8    9 1
  19    8   39 1
  20    8   40 1
  21    9   10 am
  22    9   17 2
  23   10   15 1
  24   11   14 2
  25   11   41 1
  26   12   13 1
  27   13   14 1
  28   13   42 1
  29   14   18 1
  30   15   43 1
  31   15   44 1
  32   15   45 1
  33   16   24 1
  34   18   19 ar
  35   18   23 ar
  36   19   20 ar
  37   20   21 ar
  38   20   46 1
  39   21   22 ar
  40   21   47 1
  41   22   23 ar
  42   22   48 1
  43   23   49 1
  44   24   29 ar
  45   24   28 ar
  46   25   26 ar
  47   25   29 ar
  48   25   50 1
  49   26   27 ar
  50   26   30 1
  51   27   28 ar
  52   28   51 1
  53   29   52 1
  54   30   31 2
  55   30   32 2
  56   30   33 1
  57   33   53 1
  58   33   54 1
  59   33   55 1

#	End of record

