#	Name: ASD01812805
#	Creating user name:	WinNT
#	Creation time:	15. 06. 2019 19:29

#	Modifying user name:	WinNT
#	Modification time:	15. 06. 2019 19:29

#	Program:	/corina/corina34_cracker 3.40 0067  02.08.2006

@<TRIPOS>MOLECULE
ASD01812805
  55   59    0    0    0
SMALL
NO_CHARGES


@<TRIPOS>ATOM
   1 N1            -0.0158     1.3147     0.0093 N.ar    
   2 C2             0.0021    -0.0041     0.0020 C.ar    
   3 C3             1.1989    -0.7033    -0.0127 C.ar    
   4 C4             2.3829    -0.0013    -0.0202 C.ar    
   5 C5             2.3448     1.3978    -0.0128 C.ar    
   6 C6             1.0955     2.0332     0.0025 C.ar    
   7 C7             3.8373    -0.3889    -0.0363 C.3     
   8 N8             4.5955     0.8684    -0.0373 N.am    
   9 C9             3.7280     1.8961    -0.0237 C.2     
  10 C10            6.0558     0.9844    -0.0504 C.3     
  11 C11            6.5432     1.0311    -1.4757 C.ar    
  12 C12            6.4763     2.2161    -2.1897 C.ar    
  13 C13            6.9229     2.2631    -3.4975 C.ar    
  14 C14            7.4401     1.1165    -4.0950 C.ar    
  15 C15            7.5046    -0.0723    -3.3712 C.ar    
  16 C16            7.0612    -0.1080    -2.0646 C.ar    
  17 O17            1.0255     3.3856     0.0100 O.3     
  18 O18            4.0429     3.0706    -0.0212 O.2     
  19 F19            5.9737     3.3271    -1.6080 F       
  20 C20            7.2398     1.6635    -6.5690 C.2     
  21 C21            7.9208     1.1605    -5.4991 C.2     
  22 C22            9.1631     0.6914    -5.9686 C.2     
  23 N23            9.2174     0.9056    -7.2565 N.2     
  24 N24            8.0221     1.5148    -7.6570 N.pl3   
  25 C25            7.6802     1.9203    -9.0226 C.3     
  26 C26           -0.2795     3.9677     0.0251 C.3     
  27 C27           10.2420     0.0543    -5.1313 C.3     
  28 C28           -0.1594     5.4699     0.0316 C.ar    
  29 C29           -0.1161     6.1585    -1.1689 C.ar    
  30 C30           -0.0059     7.5424    -1.1502 C.ar    
  31 C31            0.0567     8.1823     0.0780 C.ar    
  32 C32            0.0077     7.4275     1.2345 C.ar    
  33 N33           -0.1023     6.1144     1.1803 N.ar    
  34 F34           -0.1799     5.4927    -2.3427 F       
  35 H35           -0.9309    -0.5480     0.0080 H       
  36 H36            1.2023    -1.7833    -0.0178 H       
  37 H37            4.0797    -0.9721     0.8522 H       
  38 H38            4.0624    -0.9631    -0.9351 H       
  39 H39            6.3524     1.8979     0.4651 H       
  40 H40            6.4932     0.1235     0.4552 H       
  41 H41            6.8705     3.1869    -4.0545 H       
  42 H42            7.9050    -0.9639    -3.8307 H       
  43 H43            7.1150    -1.0285    -1.5023 H       
  44 H44            6.2512     2.0978    -6.5488 H       
  45 H45            8.0092     2.9458    -9.1902 H       
  46 H46            8.1764     1.2589    -9.7329 H       
  47 H47            6.6008     1.8577    -9.1607 H       
  48 H48           -0.8289     3.6509    -0.8614 H       
  49 H49           -0.8123     3.6419     0.9185 H       
  50 H50           10.0883    -1.0244    -5.1001 H       
  51 H51           11.2166     0.2699    -5.5692 H       
  52 H52           10.2015     0.4565    -4.1190 H       
  53 H53            0.0305     8.1067    -2.0703 H       
  54 H54            0.1431     9.2575     0.1303 H       
  55 H55            0.0564     7.9193     2.1948 H       
@<TRIPOS>BOND
   1    1    2 ar
   2    1    6 ar
   3    2    3 ar
   4    2   35 1
   5    3    4 ar
   6    3   36 1
   7    4    7 1
   8    4    5 ar
   9    5    6 ar
  10    5    9 1
  11    6   17 1
  12    7    8 1
  13    7   37 1
  14    7   38 1
  15    8    9 am
  16    8   10 1
  17    9   18 2
  18   10   11 1
  19   10   39 1
  20   10   40 1
  21   11   12 ar
  22   11   16 ar
  23   12   13 ar
  24   12   19 1
  25   13   14 ar
  26   13   41 1
  27   14   15 ar
  28   14   21 1
  29   15   16 ar
  30   15   42 1
  31   16   43 1
  32   17   26 1
  33   20   21 2
  34   20   24 1
  35   20   44 1
  36   21   22 1
  37   22   23 2
  38   22   27 1
  39   23   24 1
  40   24   25 1
  41   25   45 1
  42   25   46 1
  43   25   47 1
  44   26   28 1
  45   26   48 1
  46   26   49 1
  47   27   50 1
  48   27   51 1
  49   27   52 1
  50   28   29 ar
  51   28   33 ar
  52   29   30 ar
  53   29   34 1
  54   30   31 ar
  55   30   53 1
  56   31   32 ar
  57   31   54 1
  58   32   33 ar
  59   32   55 1

#	End of record

