#	Name: ASD01915985
#	Creating user name:	WinNT
#	Creation time:	15. 06. 2019 20:06

#	Modifying user name:	WinNT
#	Modification time:	15. 06. 2019 20:06

#	Program:	/corina/corina34_cracker 3.40 0067  02.08.2006

@<TRIPOS>MOLECULE
ASD01915985
  42   43    0    0    0
SMALL
NO_CHARGES


@<TRIPOS>ATOM
   1 C1            -0.0191     1.4096     0.1335 C.ar    
   2 C2            -0.0051     0.0082     0.1170 C.ar    
   3 C3             1.2266    -0.6596     0.0581 C.ar    
   4 C4             2.3814     0.0968     0.0186 C.ar    
   5 C5             2.2853     1.4891     0.0384 C.ar    
   6 N6             1.1019     2.0907     0.0945 N.ar    
   7 C7             3.5176     2.3059    -0.0037 C.2     
   8 N8             3.4339     3.6466    -0.1128 N.am    
   9 O9             4.6058     1.7681     0.0602 O.2     
  10 C10            4.6456     4.4656    -0.0268 C.3     
  11 C11            5.6131     4.0636    -1.1418 C.3     
  12 C12            4.2752     5.9421    -0.1806 C.3     
  13 C13            5.3139     4.2464     1.3320 C.3     
  14 C14           -1.2308    -0.7311     0.1602 C.1     
  15 C15           -2.2357    -1.3371     0.1956 C.1     
  16 C16           -3.4614    -2.0763     0.2387 C.ar    
  17 C17           -3.4390    -3.4740     0.2219 C.ar    
  18 C18           -4.6850    -1.4034     0.3036 C.ar    
  19 C19           -5.8614    -2.1207     0.3454 C.ar    
  20 C20           -5.8327    -3.5066     0.3231 C.ar    
  21 C21           -4.6223    -4.1799     0.2641 C.ar    
  22 C22            2.1313     4.2850    -0.3175 C.3     
  23 F23           -6.9891    -4.2040     0.3648 F       
  24 H24           -0.9623     1.9342     0.1742 H       
  25 H25            1.2710    -1.7386     0.0444 H       
  26 H26            3.3477    -0.3835    -0.0267 H       
  27 H27            5.1370     4.2198    -2.1098 H       
  28 H28            6.5146     4.6730    -1.0778 H       
  29 H29            5.8770     3.0118    -1.0322 H       
  30 H30            3.5859     6.2285     0.6137 H       
  31 H31            5.1767     6.5514    -0.1166 H       
  32 H32            3.7991     6.0983    -1.1486 H       
  33 H33            5.5778     3.1945     1.4416 H       
  34 H34            6.2154     4.8557     1.3960 H       
  35 H35            4.6247     4.5327     2.1263 H       
  36 H36           -2.4967    -3.9997     0.1756 H       
  37 H37           -4.7086    -0.3238     0.3214 H       
  38 H38           -6.8073    -1.6020     0.3959 H       
  39 H39           -4.6066    -5.2596     0.2467 H       
  40 H40            1.6403     4.4255     0.6454 H       
  41 H41            2.2727     5.2532    -0.7980 H       
  42 H42            1.5119     3.6514    -0.9523 H       
@<TRIPOS>BOND
   1    1    2 ar
   2    1    6 ar
   3    1   24 1
   4    2    3 ar
   5    2   14 1
   6    3    4 ar
   7    3   25 1
   8    4    5 ar
   9    4   26 1
  10    5    6 ar
  11    5    7 1
  12    7    8 am
  13    7    9 2
  14    8   10 1
  15    8   22 1
  16   10   11 1
  17   10   12 1
  18   10   13 1
  19   11   27 1
  20   11   28 1
  21   11   29 1
  22   12   30 1
  23   12   31 1
  24   12   32 1
  25   13   33 1
  26   13   34 1
  27   13   35 1
  28   14   15 3
  29   15   16 1
  30   16   17 ar
  31   16   18 ar
  32   17   21 ar
  33   17   36 1
  34   18   19 ar
  35   18   37 1
  36   19   20 ar
  37   19   38 1
  38   20   21 ar
  39   20   23 1
  40   21   39 1
  41   22   40 1
  42   22   41 1
  43   22   42 1

#	End of record

