#	Name: ASD01914110
#	Creating user name:	WinNT
#	Creation time:	15. 06. 2019 20:02

#	Modifying user name:	WinNT
#	Modification time:	15. 06. 2019 20:02

#	Program:	/corina/corina34_cracker 3.40 0067  02.08.2006

@<TRIPOS>MOLECULE
ASD01914110
  49   50    0    0    0
SMALL
NO_CHARGES


@<TRIPOS>ATOM
   1 N1            -0.0158     1.3156     0.0093 N.ar    
   2 C2             0.0021    -0.0041     0.0020 C.ar    
   3 C3             2.3917     0.0198    -0.0207 C.ar    
   4 C4             2.3297     1.4108    -0.0126 C.ar    
   5 O5             3.5869    -0.6235    -0.0360 O.3     
   6 C6             1.1961    -0.6947    -0.0131 C.ar    
   7 C7             1.0952     2.0273     0.0025 C.ar    
   8 C8            -1.2981    -0.7659     0.0108 C.3     
   9 C9             4.7616     0.1902    -0.0433 C.3     
  10 C10            5.9835    -0.6917    -0.0601 C.ar    
  11 N11            7.1818    -0.1400    -0.0691 N.ar    
  12 C12            8.2812    -0.8650    -0.0839 C.ar    
  13 C13            8.2121    -2.2584    -0.0911 C.ar    
  14 C14            6.9542    -2.8733    -0.0819 C.ar    
  15 C15            5.8302    -2.0668    -0.0603 C.ar    
  16 C16            9.4464    -3.0721    -0.1087 C.2     
  17 N17           10.6514    -2.4684    -0.1179 N.am    
  18 C18           11.8744    -3.2747    -0.1353 C.3     
  19 O19            9.3744    -4.2854    -0.1149 O.2     
  20 C20           13.0134    -2.4603    -0.7523 C.3     
  21 C21           12.2461    -3.6685     1.2957 C.3     
  22 C22           12.6417    -2.0665    -2.1832 C.3     
  23 C23           13.2466    -1.1978     0.0800 C.3     
  24 C24           14.2907    -3.3024    -0.7705 C.3     
  25 H25            3.2353     1.9992    -0.0177 H       
  26 H26            1.2038    -1.7747    -0.0186 H       
  27 H27            1.0377     3.1057     0.0085 H       
  28 H28           -1.6218    -0.9441    -1.0146 H       
  29 H29           -1.1566    -1.7202     0.5182 H       
  30 H30           -2.0564    -0.1845     0.5354 H       
  31 H31            4.7589     0.8242    -0.9299 H       
  32 H32            4.7766     0.8147     0.8499 H       
  33 H33            9.2444    -0.3766    -0.0908 H       
  34 H34            6.8636    -3.9495    -0.0871 H       
  35 H35            4.8436    -2.5058    -0.0527 H       
  36 H36           10.7088    -1.5001    -0.1129 H       
  37 H37           11.7083    -4.1741    -0.7282 H       
  38 H38           11.4347    -4.2487     1.7352 H       
  39 H39           13.1561    -4.2684     1.2827 H       
  40 H40           12.4122    -2.7691     1.8885 H       
  41 H41           11.7317    -1.4666    -2.1703 H       
  42 H42           13.4531    -1.4863    -2.6228 H       
  43 H43           12.4756    -2.9659    -2.7761 H       
  44 H44           13.5114    -1.4784     1.0994 H       
  45 H45           14.0580    -0.6177    -0.3596 H       
  46 H46           12.3366    -0.5980     0.0929 H       
  47 H47           14.1245    -4.2018    -1.3633 H       
  48 H48           15.1021    -2.7222    -1.2100 H       
  49 H49           14.5554    -3.5829     0.2490 H       
@<TRIPOS>BOND
   1    1    2 ar
   2    1    7 ar
   3    2    6 ar
   4    2    8 1
   5    3    4 ar
   6    3    5 1
   7    3    6 ar
   8    4    7 ar
   9    4   25 1
  10    5    9 1
  11    6   26 1
  12    7   27 1
  13    8   28 1
  14    8   29 1
  15    8   30 1
  16    9   10 1
  17    9   31 1
  18    9   32 1
  19   10   11 ar
  20   10   15 ar
  21   11   12 ar
  22   12   13 ar
  23   12   33 1
  24   13   14 ar
  25   13   16 1
  26   14   15 ar
  27   14   34 1
  28   15   35 1
  29   16   17 am
  30   16   19 2
  31   17   18 1
  32   17   36 1
  33   18   20 1
  34   18   21 1
  35   18   37 1
  36   20   23 1
  37   20   24 1
  38   20   22 1
  39   21   38 1
  40   21   39 1
  41   21   40 1
  42   22   41 1
  43   22   42 1
  44   22   43 1
  45   23   44 1
  46   23   45 1
  47   23   46 1
  48   24   47 1
  49   24   48 1
  50   24   49 1

#	End of record

