#	Name: ASD03330365
#	Creating user name:	WinNT
#	Creation time:	15. 06. 2019 20:37

#	Modifying user name:	WinNT
#	Modification time:	15. 06. 2019 20:37

#	Program:	/corina/corina34_cracker 3.40 0067  02.08.2006

@<TRIPOS>MOLECULE
ASD03330365
  61   63    0    0    0
SMALL
NO_CHARGES


@<TRIPOS>ATOM
   1 C1             0.3583     1.4480     0.4758 C.3     
   2 N2            -0.0522     0.0707     0.1686 N.3     
   3 C3             0.2925    -0.2907    -1.2183 C.3     
   4 C4             1.7376     0.0698    -1.4481 C.2     
   5 N5             2.4485     0.8915    -0.6322 N.pl3   
   6 C6             1.8878     1.5268     0.5638 C.3     
   7 C7             2.5681    -0.3234    -2.4459 C.2     
   8 N8             3.7715     0.2555    -2.2302 N.2     
   9 C9             3.7054     0.9867    -1.1401 C.2     
  10 C10            4.8130     1.7799    -0.5629 C.ar    
  11 C11            5.9501     2.0523    -1.3239 C.ar    
  12 C12            2.2218    -1.2196    -3.5633 C.2     
  13 O13            1.0991    -1.6795    -3.6485 O.2     
  14 C14            2.8051    -2.4206    -5.6016 C.3     
  15 N15            3.1493    -1.5296    -4.4907 N.am    
  16 C16           -1.4868    -0.1198     0.4212 C.3     
  17 C17            6.9794     2.7930    -0.7801 C.ar    
  18 C18            6.8855     3.2653     0.5168 C.ar    
  19 C19            5.7605     2.9985     1.2766 C.ar    
  20 C20            4.7221     2.2635     0.7425 C.ar    
  21 C21            2.1633    -1.6074    -6.7275 C.3     
  22 C22           -1.8942    -1.5349     0.0058 C.3     
  23 C23            4.0541    -3.0899    -6.1143 C.2     
  24 N24            3.9834    -4.3188    -6.6631 N.am    
  25 O25           -1.1925    -2.4873     0.8074 O.3     
  26 O26            5.1230    -2.5226    -6.0331 O.2     
  27 C27            5.1815    -4.9334    -7.2402 C.3     
  28 C28            3.1059    -0.4750    -7.1400 C.3     
  29 C29            1.9029    -2.5176    -7.9295 C.3     
  30 C30            0.8393    -1.0164    -6.2390 C.3     
  31 H31            0.0057     2.1152    -0.3108 H       
  32 H32           -0.0756     1.7515     1.4285 H       
  33 H33            0.1519    -1.3615    -1.3658 H       
  34 H34           -0.3402     0.2636    -1.9115 H       
  35 H35            2.2005     2.5701     0.6068 H       
  36 H36            2.2324     1.0020     1.4548 H       
  37 H37            6.0247     1.6839    -2.3364 H       
  38 H38            2.1027    -3.1787    -5.2551 H       
  39 H39            4.0447    -1.1629    -4.4227 H       
  40 H40           -1.6905     0.0201     1.4828 H       
  41 H41           -2.0572     0.6070    -0.1571 H       
  42 H42            7.8603     3.0043    -1.3681 H       
  43 H43            7.6940     3.8443     0.9381 H       
  44 H44            5.6932     3.3700     2.2885 H       
  45 H45            3.8444     2.0559     1.3366 H       
  46 H46           -2.9675    -1.6605     0.1484 H       
  47 H47           -1.6465    -1.6909    -1.0441 H       
  48 H48            3.1392    -4.7964    -6.6760 H       
  49 H49           -1.4023    -3.4078     0.5985 H       
  50 H50            5.5589    -4.3058    -8.0475 H       
  51 H51            5.9460    -5.0327    -6.4696 H       
  52 H52            4.9311    -5.9189    -7.6328 H       
  53 H53            4.0491    -0.8961    -7.4880 H       
  54 H54            2.6486     0.1043    -7.9421 H       
  55 H55            3.2914     0.1734    -6.2837 H       
  56 H56            1.2102    -3.3088    -7.6428 H       
  57 H57            1.4705    -1.9326    -8.7412 H       
  58 H58            2.8425    -2.9597    -8.2607 H       
  59 H59            1.0247    -0.3680    -5.3827 H       
  60 H60            0.3820    -0.4371    -7.0412 H       
  61 H61            0.1677    -1.8231    -5.9452 H       
@<TRIPOS>BOND
   1    1    2 1
   2    1    6 1
   3    1   31 1
   4    1   32 1
   5    2    3 1
   6    2   16 1
   7    3    4 1
   8    3   33 1
   9    3   34 1
  10    4    5 1
  11    4    7 2
  12    5    6 1
  13    5    9 1
  14    6   35 1
  15    6   36 1
  16    7    8 1
  17    7   12 1
  18    8    9 2
  19    9   10 1
  20   10   11 ar
  21   10   20 ar
  22   11   17 ar
  23   11   37 1
  24   12   13 2
  25   12   15 am
  26   14   15 1
  27   14   23 1
  28   14   21 1
  29   14   38 1
  30   15   39 1
  31   16   22 1
  32   16   40 1
  33   16   41 1
  34   17   18 ar
  35   17   42 1
  36   18   19 ar
  37   18   43 1
  38   19   20 ar
  39   19   44 1
  40   20   45 1
  41   21   28 1
  42   21   29 1
  43   21   30 1
  44   22   25 1
  45   22   46 1
  46   22   47 1
  47   23   24 am
  48   23   26 2
  49   24   27 1
  50   24   48 1
  51   25   49 1
  52   27   50 1
  53   27   51 1
  54   27   52 1
  55   28   53 1
  56   28   54 1
  57   28   55 1
  58   29   56 1
  59   29   57 1
  60   29   58 1
  61   30   59 1
  62   30   60 1
  63   30   61 1

#	End of record

