#	Name: ASD08150200
#	Creating user name:	WinNT
#	Creation time:	15. 06. 2019 21:15

#	Modifying user name:	WinNT
#	Modification time:	15. 06. 2019 21:15

#	Program:	/corina/corina34_cracker 3.40 0067  02.08.2006

@<TRIPOS>MOLECULE
ASD08150200
  52   56    0    0    0
SMALL
NO_CHARGES


@<TRIPOS>ATOM
   1 N1            -0.0157     1.2951    -0.0515 N.2     
   2 C2             0.0018    -0.0026    -0.0874 C.2     
   3 N3             1.1464    -0.7343    -0.1048 N.am    
   4 C4             2.3544    -0.1243    -0.0848 C.2     
   5 C5             2.3698     1.3455    -0.0439 C.ar    
   6 C6             3.5600     2.0697    -0.0212 C.ar    
   7 C7             3.5164     3.4462     0.0164 C.ar    
   8 C8             2.2988     4.1141     0.0322 C.ar    
   9 C9             1.1117     3.4172     0.0107 C.ar    
  10 C10            1.1297     2.0215    -0.0284 C.ar    
  11 O11            3.3878    -0.7674    -0.0995 O.2     
  12 C12            4.8853     1.3525    -0.0372 C.3     
  13 C13            1.0724    -2.1968    -0.1451 C.3     
  14 C14            1.7699    -2.7082    -1.4072 C.3     
  15 C15            1.6926    -4.2357    -1.4493 C.3     
  16 C16            2.3842    -4.8155    -0.2139 C.3     
  17 C17            1.6867    -4.3042     1.0482 C.3     
  18 C18            1.7640    -2.7767     1.0903 C.3     
  19 C19           -1.3151    -0.7349    -0.1106 C.3     
  20 N20           -3.9978     1.5268     0.6775 N.2     
  21 C21           -3.0835     0.6662     1.0196 C.2     
  22 N22           -2.4134     0.2343    -0.0861 N.pl3   
  23 C23           -2.9558     0.8742    -1.1718 C.ar    
  24 N24           -2.7253     0.8613    -2.4805 N.ar    
  25 C25           -3.4376     1.6115    -3.2947 C.ar    
  26 N26           -4.4025     2.4044    -2.8660 N.ar    
  27 C27           -4.7052     2.4839    -1.5742 C.ar    
  28 C28           -3.9727     1.7014    -0.6656 C.ar    
  29 N29           -5.7179     3.3182    -1.1343 N.pl3   
  30 H30            4.4369     4.0107     0.0341 H       
  31 H31            2.2830     5.1935     0.0621 H       
  32 H32            0.1710     3.9475     0.0234 H       
  33 H33            5.1525     1.1056    -1.0647 H       
  34 H34            5.6522     1.9967     0.3929 H       
  35 H35            4.8098     0.4365     0.5487 H       
  36 H36            0.0277    -2.5076    -0.1561 H       
  37 H37            1.2772    -2.2951    -2.2874 H       
  38 H38            2.8146    -2.3974    -1.3962 H       
  39 H39            0.6479    -4.5464    -1.4603 H       
  40 H40            2.1895    -4.6000    -2.3484 H       
  41 H41            2.3292    -5.9037    -0.2438 H       
  42 H42            3.4289    -4.5048    -0.2029 H       
  43 H43            0.6420    -4.6150     1.0372 H       
  44 H44            2.1794    -4.7173     1.9284 H       
  45 H45            2.8087    -2.4660     1.1013 H       
  46 H46            1.2670    -2.4124     1.9895 H       
  47 H47           -1.3809    -1.3357    -1.0178 H       
  48 H48           -1.3848    -1.3850     0.7615 H       
  49 H49           -2.8847     0.3422     2.0305 H       
  50 H50           -3.2245     1.5774    -4.3529 H       
  51 H51           -6.2162     3.8537    -1.7714 H       
  52 H52           -5.9294     3.3675    -0.1890 H       
@<TRIPOS>BOND
   1    1    2 2
   2    1   10 1
   3    2    3 1
   4    2   19 1
   5    3    4 am
   6    3   13 1
   7    4    5 1
   8    4   11 2
   9    5    6 ar
  10    5   10 ar
  11    6    7 ar
  12    6   12 1
  13    7    8 ar
  14    7   30 1
  15    8    9 ar
  16    8   31 1
  17    9   10 ar
  18    9   32 1
  19   12   33 1
  20   12   34 1
  21   12   35 1
  22   13   14 1
  23   13   18 1
  24   13   36 1
  25   14   15 1
  26   14   37 1
  27   14   38 1
  28   15   16 1
  29   15   39 1
  30   15   40 1
  31   16   17 1
  32   16   41 1
  33   16   42 1
  34   17   18 1
  35   17   43 1
  36   17   44 1
  37   18   45 1
  38   18   46 1
  39   19   22 1
  40   19   47 1
  41   19   48 1
  42   20   21 2
  43   20   28 1
  44   21   22 1
  45   21   49 1
  46   22   23 1
  47   23   24 ar
  48   23   28 ar
  49   24   25 ar
  50   25   26 ar
  51   25   50 1
  52   26   27 ar
  53   27   28 ar
  54   27   29 1
  55   29   51 1
  56   29   52 1

#	End of record

