#	Name: ASD05313159
#	Creating user name:	WinNT
#	Creation time:	15. 06. 2019 20:58

#	Modifying user name:	WinNT
#	Modification time:	15. 06. 2019 20:58

#	Program:	/corina/corina34_cracker 3.40 0067  02.08.2006

@<TRIPOS>MOLECULE
ASD05313159
  40   43    0    0    0
SMALL
NO_CHARGES


@<TRIPOS>ATOM
   1 C1            -0.0723     0.8185     1.0229 C.2     
   2 C2             0.1135    -0.6180     0.5959 C.3     
   3 N3             0.9303     1.7316     1.0491 N.pl3   
   4 N4             1.4568    -0.7179    -0.0055 N.am    
   5 C5             2.5711    -0.0363     0.6705 C.3     
   6 C6             2.3170     1.4759     0.6633 C.3     
   7 N7            -0.9041     2.6419     1.7062 N.2     
   8 N8            -1.1572     1.4098     1.4250 N.2     
   9 C9             0.3720     2.8915     1.4931 C.2     
  10 C10            1.0651     4.1818     1.6996 C.ar    
  11 C11            0.3559     5.2920     2.1628 C.ar    
  12 N12            2.3678     4.2875     1.4499 N.ar    
  13 N13            0.9797     6.4403     2.3456 N.ar    
  14 C14            2.2735     6.5403     2.0909 C.ar    
  15 C15            2.9818     5.4410     1.6363 C.ar    
  16 C16            1.6574    -1.4143    -1.1419 C.2     
  17 O17            2.7493    -1.4041    -1.6763 O.2     
  18 C18            0.5506    -2.1899    -1.7379 C.ar    
  19 C19            0.3192    -2.1378    -3.1153 C.ar    
  20 C20           -0.7171    -2.8653    -3.6655 C.ar    
  21 C21           -1.5255    -3.6447    -2.8555 C.ar    
  22 C22           -1.3006    -3.6999    -1.4897 C.ar    
  23 C23           -0.2654    -2.9827    -0.9284 C.ar    
  24 C24           -0.9692    -2.8106    -5.1503 C.3     
  25 Cl25          -2.8271    -4.5563    -3.5545 Cl      
  26 Cl26           1.3319    -1.1605    -4.1316 Cl      
  27 H27            0.0441    -1.2756     1.4624 H       
  28 H28           -0.6443    -0.8886    -0.1394 H       
  29 H29            2.6428    -0.3884     1.6996 H       
  30 H30            3.5018    -0.2515     0.1456 H       
  31 H31            2.4954     1.8702    -0.3370 H       
  32 H32            2.9877     1.9614     1.3722 H       
  33 H33           -0.7008     5.2110     2.3707 H       
  34 H34            2.7802     7.4821     2.2414 H       
  35 H35            4.0392     5.5274     1.4341 H       
  36 H36           -1.9349    -4.3098    -0.8636 H       
  37 H37           -0.0886    -3.0308     0.1359 H       
  38 H38           -0.3971    -3.5955    -5.6451 H       
  39 H39           -2.0316    -2.9582    -5.3441 H       
  40 H40           -0.6611    -1.8386    -5.5355 H       
@<TRIPOS>BOND
   1    1    2 1
   2    1    3 1
   3    1    8 2
   4    2    4 1
   5    2   27 1
   6    2   28 1
   7    3    6 1
   8    3    9 1
   9    4    5 1
  10    4   16 am
  11    5    6 1
  12    5   29 1
  13    5   30 1
  14    6   31 1
  15    6   32 1
  16    7    8 1
  17    7    9 2
  18    9   10 1
  19   10   11 ar
  20   10   12 ar
  21   11   13 ar
  22   11   33 1
  23   12   15 ar
  24   13   14 ar
  25   14   15 ar
  26   14   34 1
  27   15   35 1
  28   16   17 2
  29   16   18 1
  30   18   19 ar
  31   18   23 ar
  32   19   20 ar
  33   19   26 1
  34   20   21 ar
  35   20   24 1
  36   21   22 ar
  37   21   25 1
  38   22   23 ar
  39   22   36 1
  40   23   37 1
  41   24   38 1
  42   24   39 1
  43   24   40 1

#	End of record

