#	Name: ASD01901198
#	Creating user name:	WinNT
#	Creation time:	15. 06. 2019 19:53

#	Modifying user name:	WinNT
#	Modification time:	15. 06. 2019 19:53

#	Program:	/corina/corina34_cracker 3.40 0067  02.08.2006

@<TRIPOS>MOLECULE
ASD01901198
  50   53    0    0    0
SMALL
NO_CHARGES


@<TRIPOS>ATOM
   1 C1            -0.0158     1.3123     0.0093 C.ar    
   2 N2             0.0021    -0.0041     0.0020 N.ar    
   3 C3             1.1316    -0.6859    -0.0125 C.ar    
   4 C4             2.3557    -0.0416    -0.0203 C.ar    
   5 C5             2.3935     1.3414    -0.0132 C.ar    
   6 C6             1.1781     2.0387     0.0018 C.ar    
   7 C7             1.1598     3.4705     0.0092 C.1     
   8 C8             1.1447     4.6444     0.0153 C.1     
   9 C9             1.1264     6.0763     0.0227 C.ar    
  10 C10            2.3268     6.7924     0.0151 C.ar    
  11 C11            2.3053     8.1721     0.0224 C.ar    
  12 C12            1.0908     8.8505     0.0373 C.ar    
  13 C13           -0.1059     8.1411     0.0449 C.ar    
  14 C14           -0.0921     6.7613     0.0319 C.ar    
  15 N15            1.0728    10.2529     0.0451 N.am    
  16 C16            1.0535    10.9219    -1.1222 C.2     
  17 C17            1.1347    12.4278    -1.1288 C.3     
  18 C18            0.4075    12.9759     0.1012 C.3     
  19 N19            0.8196    12.2247     1.2883 N.am    
  20 C20            1.0695    10.9080     1.2179 C.2     
  21 O21            0.9714    10.3144    -2.1682 O.2     
  22 O22            1.3032    10.2944     2.2407 O.2     
  23 C23            0.7653    14.4524     0.2826 C.3     
  24 C24           -1.0815    12.8397    -0.0874 C.ar    
  25 C25           -1.9219    12.6650     1.0022 C.ar    
  26 C26           -3.2819    12.5442     0.7916 C.ar    
  27 N27           -3.7832    12.5930    -0.4275 N.ar    
  28 C28           -3.0146    12.7580    -1.4873 C.ar    
  29 C29           -1.6437    12.8919    -1.3527 C.ar    
  30 F30           -1.2831     8.8039     0.0593 F       
  31 F31            3.4651     8.8650     0.0155 F       
  32 C32            0.9558    12.9190     2.5711 C.3     
  33 Cl33          -3.7317    12.8143    -3.0672 Cl      
  34 H34           -0.9608     1.8351     0.0166 H       
  35 H35            1.1000    -1.7654    -0.0180 H       
  36 H36            3.2725    -0.6123    -0.0314 H       
  37 H37            3.3354     1.8699    -0.0187 H       
  38 H38            3.2700     6.2664     0.0039 H       
  39 H39           -1.0216     6.2112     0.0329 H       
  40 H40            2.1797    12.7363    -1.1016 H       
  41 H41            0.6634    12.8139    -2.0326 H       
  42 H42            1.8421    14.5512     0.4194 H       
  43 H43            0.4585    15.0118    -0.6011 H       
  44 H44            0.2501    14.8461     1.1588 H       
  45 H45           -1.5180    12.6235     2.0030 H       
  46 H46           -3.9424    12.4079     1.6352 H       
  47 H47           -1.0197    13.0310    -2.2232 H       
  48 H48            0.0049    12.8890     3.1032 H       
  49 H49            1.7229    12.4284     3.1702 H       
  50 H50            1.2407    13.9561     2.3945 H       
@<TRIPOS>BOND
   1    1    2 ar
   2    1    6 ar
   3    1   34 1
   4    2    3 ar
   5    3    4 ar
   6    3   35 1
   7    4    5 ar
   8    4   36 1
   9    5    6 ar
  10    5   37 1
  11    6    7 1
  12    7    8 3
  13    8    9 1
  14    9   10 ar
  15    9   14 ar
  16   10   11 ar
  17   10   38 1
  18   11   12 ar
  19   11   31 1
  20   12   13 ar
  21   12   15 1
  22   13   14 ar
  23   13   30 1
  24   14   39 1
  25   15   16 am
  26   15   20 am
  27   16   17 1
  28   16   21 2
  29   17   18 1
  30   17   40 1
  31   17   41 1
  32   18   19 1
  33   18   23 1
  34   18   24 1
  35   19   20 am
  36   19   32 1
  37   20   22 2
  38   23   42 1
  39   23   43 1
  40   23   44 1
  41   24   25 ar
  42   24   29 ar
  43   25   26 ar
  44   25   45 1
  45   26   27 ar
  46   26   46 1
  47   27   28 ar
  48   28   29 ar
  49   28   33 1
  50   29   47 1
  51   32   48 1
  52   32   49 1
  53   32   50 1

#	End of record

