#	Name: ASD03080069
#	Creating user name:	WinNT
#	Creation time:	15. 06. 2019 20:26

#	Modifying user name:	WinNT
#	Modification time:	15. 06. 2019 20:26

#	Program:	/corina/corina34_cracker 3.40 0067  02.08.2006

@<TRIPOS>MOLECULE
ASD03080069
  31   33    0    0    0
SMALL
NO_CHARGES


@<TRIPOS>ATOM
   1 C1            -0.0184     1.5028     0.0103 C.2     
   2 C2            -1.2537     2.3649     0.0512 C.3     
   3 C3             1.3145     2.1271    -0.0071 C.ar    
   4 C4             1.4367     3.5143    -0.1085 C.ar    
   5 C5             2.7018     4.0955    -0.1237 C.ar    
   6 C6             3.8395     3.2889    -0.0377 C.ar    
   7 C7             3.7128     1.9174     0.0624 C.ar    
   8 C8             2.4627     1.3327     0.0836 C.ar    
   9 O9             1.8436     6.4568    -0.3206 O.3     
  10 N10            2.2988     7.5785    -0.3943 N.2     
  11 C11            3.6062     7.5415    -0.3621 C.2     
  12 N12            3.9701     6.2463    -0.2569 N.2     
  13 C13            2.8411     5.5636    -0.2312 C.2     
  14 C14            5.9015     8.5298    -0.3854 C.ar    
  15 C15            4.5207     8.7089    -0.4296 C.ar    
  16 C16            4.0104    10.0049    -0.5389 C.ar    
  17 C17            4.9050    11.0600    -0.5988 C.ar    
  18 C18            6.2620    10.7997    -0.5490 C.ar    
  19 N19            6.7141     9.5647    -0.4456 N.ar    
  20 O20           -0.1222     0.2948    -0.0032 O.2     
  21 H21           -0.9640     3.4101     0.1585 H       
  22 H22           -1.8168     2.2370    -0.8733 H       
  23 H23           -1.8740     2.0710     0.8980 H       
  24 H24            0.5543     4.1333    -0.1751 H       
  25 H25            4.8210     3.7395    -0.0498 H       
  26 H26            4.5962     1.2996     0.1282 H       
  27 H27            2.3708     0.2597     0.1662 H       
  28 H28            6.3093     7.5337    -0.2965 H       
  29 H29            2.9452    10.1793    -0.5760 H       
  30 H30            4.5467    12.0753    -0.6839 H       
  31 H31            6.9628    11.6202    -0.5959 H       
@<TRIPOS>BOND
   1    1    2 1
   2    1    3 1
   3    1   20 2
   4    2   21 1
   5    2   22 1
   6    2   23 1
   7    3    4 ar
   8    3    8 ar
   9    4    5 ar
  10    4   24 1
  11    5    6 ar
  12    5   13 1
  13    6    7 ar
  14    6   25 1
  15    7    8 ar
  16    7   26 1
  17    8   27 1
  18    9   10 1
  19    9   13 1
  20   10   11 2
  21   11   12 1
  22   11   15 1
  23   12   13 2
  24   14   15 ar
  25   14   19 ar
  26   14   28 1
  27   15   16 ar
  28   16   17 ar
  29   16   29 1
  30   17   18 ar
  31   17   30 1
  32   18   19 ar
  33   18   31 1

#	End of record

