#	Name: ASD02500253
#	Creating user name:	WinNT
#	Creation time:	15. 06. 2019 20:22

#	Modifying user name:	WinNT
#	Modification time:	15. 06. 2019 20:22

#	Program:	/corina/corina34_cracker 3.40 0067  02.08.2006

@<TRIPOS>MOLECULE
ASD02500253
  53   56    0    0    0
SMALL
NO_CHARGES


@<TRIPOS>ATOM
   1 C1            -0.2437     1.9065    -3.0723 C.ar    
   2 C2             0.7684     1.5592    -2.1950 C.ar    
   3 C3             1.8680     0.8554    -2.6522 C.ar    
   4 C4             1.9551     0.4995    -3.9852 C.ar    
   5 C5             0.9440     0.8472    -4.8611 C.ar    
   6 C6            -0.1555     1.5502    -4.4046 C.ar    
   7 S7            -1.6482     2.7967    -2.4893 S.o2    
   8 O8            -1.1449     3.8986    -1.7466 O.2     
   9 O9            -2.5208     2.9424    -3.6014 O.2     
  10 N10           -2.4317     1.8206    -1.4050 N.am    
  11 C11           -2.9639     0.6055    -1.8215 C.ar    
  12 C12           -2.7408    -0.5448    -1.0697 C.ar    
  13 C13           -3.2661    -1.7489    -1.4794 C.ar    
  14 C14           -4.0246    -1.8163    -2.6518 C.ar    
  15 C15           -4.2468    -0.6595    -3.4045 C.ar    
  16 C16           -3.7236     0.5427    -2.9865 C.ar    
  17 C17           -4.5888    -3.1056    -3.0940 C.2     
  18 O18           -5.7096    -3.1498    -3.5635 O.2     
  19 N19           -3.8620    -4.2347    -2.9775 N.am    
  20 C20           -4.3723    -5.5168    -3.4865 C.3     
  21 C21           -3.2981    -6.1487    -4.3782 C.3     
  22 N22           -2.0355    -6.2347    -3.6324 N.3     
  23 C23           -1.5357    -4.9004    -3.2750 C.3     
  24 C24           -2.5350    -4.2162    -2.3436 C.3     
  25 C25           -1.0770    -6.9521    -4.3518 C.ar    
  26 C26            0.1907    -7.1481    -3.8189 C.ar    
  27 C27            1.1359    -7.8583    -4.5327 C.ar    
  28 C28            0.8214    -8.3741    -5.7766 C.ar    
  29 C29           -0.4397    -8.1809    -6.3101 C.ar    
  30 C30           -1.3913    -7.4762    -5.5993 C.ar    
  31 Cl31           0.6586     2.0070    -0.5213 Cl      
  32 H32            2.6585     0.5843    -1.9681 H       
  33 H33            2.8136    -0.0500    -4.3423 H       
  34 H34            1.0128     0.5695    -5.9025 H       
  35 H35           -0.9454     1.8213    -5.0894 H       
  36 H36           -2.5194     2.0966    -0.4792 H       
  37 H37           -2.1544    -0.4922    -0.1643 H       
  38 H38           -3.0924    -2.6410    -0.8959 H       
  39 H39           -4.8321    -0.7084    -4.3108 H       
  40 H40           -3.8989     1.4376    -3.5651 H       
  41 H41           -4.5917    -6.1812    -2.6508 H       
  42 H42           -5.2774    -5.3453    -4.0691 H       
  43 H43           -3.6141    -7.1487    -4.6752 H       
  44 H44           -3.1547    -5.5334    -5.2665 H       
  45 H45           -0.5734    -4.9951    -2.7719 H       
  46 H46           -1.4168    -4.3025    -4.1786 H       
  47 H47           -2.2260    -3.1853    -2.1708 H       
  48 H48           -2.5744    -4.7532    -1.3959 H       
  49 H49            0.4371    -6.7452    -2.8476 H       
  50 H50            2.1218    -8.0107    -4.1191 H       
  51 H51            1.5625    -8.9288    -6.3329 H       
  52 H52           -0.6820    -8.5851    -7.2818 H       
  53 H53           -2.3774    -7.3294    -6.0146 H       
@<TRIPOS>BOND
   1    1    2 ar
   2    1    6 ar
   3    1    7 1
   4    2    3 ar
   5    2   31 1
   6    3    4 ar
   7    3   32 1
   8    4    5 ar
   9    4   33 1
  10    5    6 ar
  11    5   34 1
  12    6   35 1
  13    7    8 2
  14    7    9 2
  15    7   10 am
  16   10   11 1
  17   10   36 1
  18   11   12 ar
  19   11   16 ar
  20   12   13 ar
  21   12   37 1
  22   13   14 ar
  23   13   38 1
  24   14   15 ar
  25   14   17 1
  26   15   16 ar
  27   15   39 1
  28   16   40 1
  29   17   18 2
  30   17   19 am
  31   19   20 1
  32   19   24 1
  33   20   21 1
  34   20   41 1
  35   20   42 1
  36   21   22 1
  37   21   43 1
  38   21   44 1
  39   22   23 1
  40   22   25 1
  41   23   24 1
  42   23   45 1
  43   23   46 1
  44   24   47 1
  45   24   48 1
  46   25   26 ar
  47   25   30 ar
  48   26   27 ar
  49   26   49 1
  50   27   28 ar
  51   27   50 1
  52   28   29 ar
  53   28   51 1
  54   29   30 ar
  55   29   52 1
  56   30   53 1

#	End of record

