#	Name: ASD01910360
#	Creating user name:	WinNT
#	Creation time:	15. 06. 2019 19:55

#	Modifying user name:	WinNT
#	Modification time:	15. 06. 2019 19:55

#	Program:	/corina/corina34_cracker 3.40 0067  02.08.2006

@<TRIPOS>MOLECULE
ASD01910360
  47   49    0    0    0
SMALL
NO_CHARGES


@<TRIPOS>ATOM
   1 C1            -0.0173     1.4278     0.0099 C.ar    
   2 C2             0.0021    -0.0041     0.0020 C.1     
   3 C3             0.0180    -1.1779    -0.0044 C.1     
   4 C4             0.0374    -2.6098    -0.0123 C.ar    
   5 C5            -1.1646    -3.3262    -0.0047 C.ar    
   6 C6            -1.1454    -4.6917    -0.0127 C.ar    
   7 C7             0.0749    -5.3739    -0.0280 C.ar    
   8 C8             1.2762    -4.6588    -0.0352 C.ar    
   9 C9             1.2584    -3.2932    -0.0335 C.ar    
  10 C10            0.0949    -6.8500    -0.0362 C.2     
  11 O11           -0.9496    -7.4722    -0.0295 O.2     
  12 N12            1.2711    -7.5079    -0.0509 N.am    
  13 C13            1.1814     2.1464     0.0023 C.ar    
  14 C14            1.1547     3.5253     0.0100 C.ar    
  15 C15           -0.0549     4.1973     0.0257 C.ar    
  16 C16           -1.2459     3.4926     0.0333 C.ar    
  17 C17           -1.2352     2.1136     0.0194 C.ar    
  18 C18            1.2910    -8.9728    -0.0590 C.3     
  19 C19            2.5992    -9.4617    -0.6838 C.3     
  20 C20            2.6200   -10.9915    -0.6923 C.3     
  21 C21            2.5149   -11.5109     0.7430 C.3     
  22 C22            1.2067   -11.0220     1.3678 C.3     
  23 C23            1.1859    -9.4922     1.3763 C.3     
  24 C24            2.5357   -13.0407     0.7346 C.3     
  25 H25           -2.1073    -2.7994     0.0079 H       
  26 H26           -2.0730    -5.2448    -0.0068 H       
  27 H27            2.2185    -5.1864    -0.0463 H       
  28 H28            2.1864    -2.7409    -0.0390 H       
  29 H29            2.1044    -7.0116    -0.0562 H       
  30 H30            2.1262     1.6233    -0.0092 H       
  31 H31            2.0802     4.0819     0.0042 H       
  32 H32           -0.0695     5.2772     0.0324 H       
  33 H33           -2.1861     4.0239     0.0459 H       
  34 H34           -2.1654     1.5649     0.0253 H       
  35 H35            0.4486    -9.3444    -0.6424 H       
  36 H36            2.6741    -9.0916    -1.7064 H       
  37 H37            3.4416    -9.0901    -0.1004 H       
  38 H38            1.7776   -11.3631    -1.2757 H       
  39 H39            3.5520   -11.3398    -1.1374 H       
  40 H40            3.3573   -11.1393     1.3265 H       
  41 H41            0.3642   -11.3936     0.7844 H       
  42 H42            1.1318   -11.3920     2.3904 H       
  43 H43            2.0283    -9.1206     1.9597 H       
  44 H44            0.2539    -9.1439     1.8214 H       
  45 H45            3.4677   -13.3890     0.2895 H       
  46 H46            2.4608   -13.4107     1.7571 H       
  47 H47            1.6933   -13.4123     0.1512 H       
@<TRIPOS>BOND
   1    1    2 1
   2    1   13 ar
   3    1   17 ar
   4    2    3 3
   5    3    4 1
   6    4    5 ar
   7    4    9 ar
   8    5    6 ar
   9    5   25 1
  10    6    7 ar
  11    6   26 1
  12    7    8 ar
  13    7   10 1
  14    8    9 ar
  15    8   27 1
  16    9   28 1
  17   10   11 2
  18   10   12 am
  19   12   18 1
  20   12   29 1
  21   13   14 ar
  22   13   30 1
  23   14   15 ar
  24   14   31 1
  25   15   16 ar
  26   15   32 1
  27   16   17 ar
  28   16   33 1
  29   17   34 1
  30   18   19 1
  31   18   23 1
  32   18   35 1
  33   19   20 1
  34   19   36 1
  35   19   37 1
  36   20   21 1
  37   20   38 1
  38   20   39 1
  39   21   22 1
  40   21   24 1
  41   21   40 1
  42   22   23 1
  43   22   41 1
  44   22   42 1
  45   23   43 1
  46   23   44 1
  47   24   45 1
  48   24   46 1
  49   24   47 1

#	End of record

