#	Name: ASD01812463
#	Creating user name:	WinNT
#	Creation time:	15. 06. 2019 19:28

#	Modifying user name:	WinNT
#	Modification time:	15. 06. 2019 19:28

#	Program:	/corina/corina34_cracker 3.40 0067  02.08.2006

@<TRIPOS>MOLECULE
ASD01812463
  60   64    0    0    0
SMALL
NO_CHARGES


@<TRIPOS>ATOM
   1 C1             0.0930     1.0479     0.4443 C.ar    
   2 C2             0.2565    -0.3151     0.6016 C.ar    
   3 C3             1.5217    -0.8704     0.5528 C.ar    
   4 C4             2.6244    -0.0648     0.3491 C.ar    
   5 C5             2.4692     1.3088     0.1910 C.ar    
   6 C6             1.1960     1.8640     0.2364 C.ar    
   7 N7             3.6101     2.0931    -0.0067 N.3     
   8 C8             3.2903     3.3919    -0.6105 C.3     
   9 C9             2.1547     4.0391     0.1928 C.3     
  10 O10            0.9998     3.2016     0.0755 O.3     
  11 C11            4.6116     1.3737    -0.8050 C.3     
  12 C12            5.7773     2.2857    -1.0888 C.ar    
  13 C13            5.7731     3.0786    -2.2217 C.ar    
  14 C14            6.8462     2.3323    -0.2128 C.ar    
  15 C15            7.9158     3.1675    -0.4700 C.ar    
  16 C16            7.9169     3.9608    -1.6094 C.ar    
  17 C17            6.8400     3.9155    -2.4845 C.ar    
  18 N18            2.7656     6.3919    -0.2648 N.am    
  19 C19            1.8516     5.4065    -0.3634 C.2     
  20 O20            0.7850     5.6201    -0.8999 O.2     
  21 N21            9.0010     4.8095    -1.8732 N.pl3   
  22 C22            9.1281     5.6300    -2.9405 C.2     
  23 C23           10.3116     6.2758    -2.8248 C.2     
  24 C24           10.9290     5.8363    -1.6486 C.2     
  25 N25           10.1418     4.9623    -1.0746 N.2     
  26 C26            2.4709     7.7212    -0.8055 C.3     
  27 C27            3.7808     8.4371    -1.1414 C.3     
  28 C28            3.4730     9.8253    -1.7061 C.3     
  29 C29            2.6993    10.6387    -0.6666 C.3     
  30 C30            1.3895     9.9229    -0.3307 C.3     
  31 C31            1.6972     8.5346     0.2340 C.3     
  32 O32            4.5034     7.6773    -2.1123 O.3     
  33 H33           -0.8966     1.4789     0.4789 H       
  34 H34           -0.6044    -0.9469     0.7630 H       
  35 H35            1.6478    -1.9360     0.6745 H       
  36 H36            3.6111    -0.5025     0.3128 H       
  37 H37            4.1702     4.0346    -0.5833 H       
  38 H38            2.9717     3.2469    -1.6428 H       
  39 H39            2.4445     4.1231     1.2402 H       
  40 H40            4.9592     0.5014    -0.2514 H       
  41 H41            4.1642     1.0525    -1.7456 H       
  42 H42            4.9350     3.0431    -2.9019 H       
  43 H43            6.8446     1.7152     0.6735 H       
  44 H44            8.7502     3.2037     0.2147 H       
  45 H45            6.8366     4.5339    -3.3699 H       
  46 H46            3.6187     6.2211     0.1643 H       
  47 H47            8.4133     5.7486    -3.7414 H       
  48 H48           10.7097     7.0017    -3.5183 H       
  49 H49           11.8879     6.1651    -1.2761 H       
  50 H50            1.8697     7.6208    -1.7092 H       
  51 H51            4.3820     8.5375    -0.2378 H       
  52 H52            4.4062    10.3353    -1.9454 H       
  53 H53            2.8718     9.7249    -2.6098 H       
  54 H54            3.3005    10.7392     0.2370 H       
  55 H55            2.4800    11.6277    -1.0689 H       
  56 H56            0.8383    10.5024     0.4099 H       
  57 H57            0.7882     9.8224    -1.2344 H       
  58 H58            0.7641     8.0247     0.4733 H       
  59 H59            2.2984     8.6351     1.1376 H       
  60 H60            5.3465     8.0727    -2.3730 H       
@<TRIPOS>BOND
   1    1    2 ar
   2    1    6 ar
   3    1   33 1
   4    2    3 ar
   5    2   34 1
   6    3    4 ar
   7    3   35 1
   8    4    5 ar
   9    4   36 1
  10    5    7 1
  11    5    6 ar
  12    6   10 1
  13    7   11 1
  14    7    8 1
  15    8    9 1
  16    8   37 1
  17    8   38 1
  18    9   10 1
  19    9   19 1
  20    9   39 1
  21   11   12 1
  22   11   40 1
  23   11   41 1
  24   12   14 ar
  25   12   13 ar
  26   13   17 ar
  27   13   42 1
  28   14   15 ar
  29   14   43 1
  30   15   16 ar
  31   15   44 1
  32   16   17 ar
  33   16   21 1
  34   17   45 1
  35   18   19 am
  36   18   26 1
  37   18   46 1
  38   19   20 2
  39   21   22 1
  40   21   25 1
  41   22   23 2
  42   22   47 1
  43   23   24 1
  44   23   48 1
  45   24   25 2
  46   24   49 1
  47   26   27 1
  48   26   31 1
  49   26   50 1
  50   27   28 1
  51   27   32 1
  52   27   51 1
  53   28   29 1
  54   28   52 1
  55   28   53 1
  56   29   30 1
  57   29   54 1
  58   29   55 1
  59   30   31 1
  60   30   56 1
  61   30   57 1
  62   31   58 1
  63   31   59 1
  64   32   60 1

#	End of record

