#	Name: ASD01910872
#	Creating user name:	WinNT
#	Creation time:	15. 06. 2019 19:56

#	Modifying user name:	WinNT
#	Modification time:	15. 06. 2019 19:56

#	Program:	/corina/corina34_cracker 3.40 0067  02.08.2006

@<TRIPOS>MOLECULE
ASD01910872
  50   53    0    0    0
SMALL
NO_CHARGES


@<TRIPOS>ATOM
   1 C1            -0.2870     1.1101     0.3925 C.ar    
   2 C2            -0.1931    -0.2696     0.3021 C.ar    
   3 N3             1.0023    -0.8317     0.2304 N.ar    
   4 C4             2.1008    -0.0913     0.2443 C.ar    
   5 N5             2.0458     1.2298     0.3298 N.ar    
   6 C6             0.8824     1.8546     0.4046 C.ar    
   7 N7             3.3352    -0.7126     0.1681 N.3     
   8 C8             3.1859    -2.1713     0.0804 C.3     
   9 C9             4.5552    -2.8067    -0.1837 C.3     
  10 N10            5.4941    -2.3384     0.8470 N.am    
  11 C11            5.5976    -0.8913     1.0883 C.3     
  12 C12            4.1873    -0.3314     1.3023 C.3     
  13 C13            6.2402    -3.2123     1.5514 C.2     
  14 C14            7.2664    -2.7169     2.4938 C.ar    
  15 C15            7.4536    -3.3536     3.7226 C.ar    
  16 C16            8.4113    -2.8928     4.6047 C.ar    
  17 C17            9.1902    -1.8008     4.2794 C.ar    
  18 C18            9.0136    -1.1530     3.0527 C.ar    
  19 C19            8.0522    -1.6175     2.1552 C.ar    
  20 C20            9.8218    -0.0198     2.7162 C.1     
  21 O21            6.0696    -4.4077     1.4120 O.2     
  22 C22           10.4844     0.9092     2.4404 C.1     
  23 C23           11.2927     2.0424     2.1040 C.ar    
  24 C24           11.1248     2.6972     0.8813 C.ar    
  25 N25           11.8685     3.7392     0.5727 N.ar    
  26 C26           12.7915     4.2041     1.3925 C.ar    
  27 C27           13.0200     3.6116     2.6219 C.ar    
  28 C28           12.2619     2.5175     2.9980 C.ar    
  29 C29            0.8287     3.3575     0.5011 C.3     
  30 F30            2.1211     3.8791     0.3797 F       
  31 F31            0.0237     3.8623    -0.5257 F       
  32 F32            0.2914     3.7264     1.7391 F       
  33 H33           -1.2503     1.5951     0.4479 H       
  34 H34           -1.0850    -0.8785     0.2907 H       
  35 H35            2.7828    -2.5528     1.0185 H       
  36 H36            2.5066    -2.4191    -0.7352 H       
  37 H37            4.4705    -3.8923    -0.1359 H       
  38 H38            4.9137    -2.5076    -1.1687 H       
  39 H39            6.2021    -0.7106     1.9771 H       
  40 H40            6.0564    -0.4081     0.2256 H       
  41 H41            4.2342     0.7553     1.3729 H       
  42 H42            3.7703    -0.7384     2.2235 H       
  43 H43            6.8475    -4.2084     3.9841 H       
  44 H44            8.5512    -3.3891     5.5536 H       
  45 H45            9.9373    -1.4457     4.9737 H       
  46 H46            7.9112    -1.1214     1.2063 H       
  47 H47           10.3793     2.3457     0.1835 H       
  48 H48           13.3790     5.0615     1.0990 H       
  49 H49           13.7795     4.0022     3.2830 H       
  50 H50           12.4193     2.0359     3.9517 H       
@<TRIPOS>BOND
   1    1    2 ar
   2    1    6 ar
   3    1   33 1
   4    2    3 ar
   5    2   34 1
   6    3    4 ar
   7    4    5 ar
   8    4    7 1
   9    5    6 ar
  10    6   29 1
  11    7    8 1
  12    7   12 1
  13    8    9 1
  14    8   35 1
  15    8   36 1
  16    9   10 1
  17    9   37 1
  18    9   38 1
  19   10   11 1
  20   10   13 am
  21   11   12 1
  22   11   39 1
  23   11   40 1
  24   12   41 1
  25   12   42 1
  26   13   14 1
  27   13   21 2
  28   14   15 ar
  29   14   19 ar
  30   15   16 ar
  31   15   43 1
  32   16   17 ar
  33   16   44 1
  34   17   18 ar
  35   17   45 1
  36   18   19 ar
  37   18   20 1
  38   19   46 1
  39   20   22 3
  40   22   23 1
  41   23   24 ar
  42   23   28 ar
  43   24   25 ar
  44   24   47 1
  45   25   26 ar
  46   26   27 ar
  47   26   48 1
  48   27   28 ar
  49   27   49 1
  50   28   50 1
  51   29   30 1
  52   29   31 1
  53   29   32 1

#	End of record

