#	Name: ASD01885930
#	Creating user name:	WinNT
#	Creation time:	15. 06. 2019 19:50

#	Modifying user name:	WinNT
#	Modification time:	15. 06. 2019 19:50

#	Program:	/corina/corina34_cracker 3.40 0067  02.08.2006

@<TRIPOS>MOLECULE
ASD01885930
  56   59    0    0    0
SMALL
NO_CHARGES


@<TRIPOS>ATOM
   1 C1            -0.0170     1.4037     0.0098 C.ar    
   2 C2            -1.2665     2.0740     0.0193 C.ar    
   3 C3            -1.2874     3.4920     0.0272 C.ar    
   4 C4            -0.0699     4.1597     0.0250 C.ar    
   5 C5             1.1199     3.4234     0.0154 C.ar    
   6 N6             1.1178     2.1038     0.0027 N.ar    
   7 C7             0.0021    -0.0041     0.0020 C.ar    
   8 C8            -1.1701    -0.6952     0.0090 C.ar    
   9 C9            -2.3952    -0.0320     0.0237 C.ar    
  10 C10           -2.4530     1.3298     0.0204 C.ar    
  11 C11           -2.5666     4.2367     0.0368 C.ar    
  12 C12           -3.5650     3.9226    -0.8855 C.ar    
  13 C13           -4.7566     4.6177    -0.8759 C.ar    
  14 C14           -2.7783     5.2507     0.9725 C.ar    
  15 C15            2.4157     4.1442     0.0065 C.2     
  16 N16            3.5718     3.4518    -0.0142 N.am    
  17 O17            2.4352     5.3590     0.0180 O.2     
  18 C18           -1.1424    -2.2019     0.0127 C.3     
  19 C19           -4.9652     5.6295     0.0496 C.ar    
  20 C20           -3.9742     5.9434     0.9778 C.ar    
  21 O21           -6.1405     6.3119     0.0551 O.3     
  22 C22           -1.1525    -2.7157    -1.4284 C.3     
  23 C23           -7.1147     5.9341    -0.9196 C.3     
  24 O24           -4.1814     6.9356     1.8845 O.3     
  25 C25           -3.1227     7.2037     2.8061 C.3     
  26 C26           -1.1249    -4.2225    -1.4247 C.ar    
  27 C27           -2.3020    -4.9538    -1.4068 C.ar    
  28 N28           -2.2386    -6.2756    -1.4040 N.ar    
  29 C29           -1.0758    -6.8959    -1.4180 C.ar    
  30 N30            0.0635    -6.2335    -1.4352 N.ar    
  31 C31            0.0783    -4.9102    -1.4448 C.ar    
  32 C32           -1.0481    -8.4026    -1.4137 C.3     
  33 H33           -0.0416     5.2393     0.0305 H       
  34 H34            0.9434    -0.5334    -0.0098 H       
  35 H35           -3.3109    -0.6043     0.0376 H       
  36 H36           -3.4089     1.8324     0.0276 H       
  37 H37           -3.4049     3.1354    -1.6074 H       
  38 H38           -5.5286     4.3737    -1.5907 H       
  39 H39           -2.0093     5.4931     1.6910 H       
  40 H40            3.5562     2.4820    -0.0234 H       
  41 H41            4.4195     3.9233    -0.0200 H       
  42 H42           -0.2390    -2.5475     0.5153 H       
  43 H43           -2.0185    -2.5801     0.5394 H       
  44 H44           -2.0559    -2.3701    -1.9310 H       
  45 H45           -0.2764    -2.3375    -1.9551 H       
  46 H46           -8.0029     6.5556    -0.8056 H       
  47 H47           -6.7012     6.0712    -1.9188 H       
  48 H48           -7.3833     4.8872    -0.7781 H       
  49 H49           -2.9168     6.3088     3.3932 H       
  50 H50           -2.2267     7.4918     2.2563 H       
  51 H51           -3.4172     8.0151     3.4717 H       
  52 H52           -3.2582    -4.4518    -1.3949 H       
  53 H53            1.0153    -4.3735    -1.4589 H       
  54 H54           -1.0555    -8.7690    -2.4403 H       
  55 H55           -0.1447    -8.7480    -0.9111 H       
  56 H56           -1.9242    -8.7806    -0.8867 H       
@<TRIPOS>BOND
   1    1    7 ar
   2    1    6 ar
   3    1    2 ar
   4    2    3 ar
   5    2   10 ar
   6    3   11 1
   7    3    4 ar
   8    4    5 ar
   9    4   33 1
  10    5   15 1
  11    5    6 ar
  12    7    8 ar
  13    7   34 1
  14    8    9 ar
  15    8   18 1
  16    9   10 ar
  17    9   35 1
  18   10   36 1
  19   11   12 ar
  20   11   14 ar
  21   12   13 ar
  22   12   37 1
  23   13   19 ar
  24   13   38 1
  25   14   20 ar
  26   14   39 1
  27   15   16 am
  28   15   17 2
  29   16   40 1
  30   16   41 1
  31   18   22 1
  32   18   42 1
  33   18   43 1
  34   19   20 ar
  35   19   21 1
  36   20   24 1
  37   21   23 1
  38   22   26 1
  39   22   44 1
  40   22   45 1
  41   23   46 1
  42   23   47 1
  43   23   48 1
  44   24   25 1
  45   25   49 1
  46   25   50 1
  47   25   51 1
  48   26   27 ar
  49   26   31 ar
  50   27   28 ar
  51   27   52 1
  52   28   29 ar
  53   29   30 ar
  54   29   32 1
  55   30   31 ar
  56   31   53 1
  57   32   54 1
  58   32   55 1
  59   32   56 1

#	End of record

