#	Name: ASD00170053
#	Creating user name:	WinNT
#	Creation time:	15. 06. 2019 18:31

#	Modifying user name:	WinNT
#	Modification time:	15. 06. 2019 18:31

#	Program:	/corina/corina34_cracker 3.40 0067  02.08.2006

@<TRIPOS>MOLECULE
ASD00170053
  32   33    0    0    0
SMALL
NO_CHARGES


@<TRIPOS>ATOM
   1 C1            -0.0215     1.3259    -0.1139 C.2     
   2 C2             0.0015     0.0025    -0.1441 C.2     
   3 C3            -1.3078    -0.5944     0.0161 C.2     
   4 C4            -2.3033     0.3430     0.1665 C.2     
   5 S5            -1.6559     1.9190     0.1206 S.3     
   6 N6            -3.6408     0.0480     0.3366 N.pl3   
   7 C7             1.1944     2.2049    -0.2555 C.3     
   8 C8            -1.5462    -2.0376     0.0174 C.2     
   9 C9            -1.7880    -2.7482    -1.2568 C.ar    
  10 O10           -1.5455    -2.6539     1.0677 O.2     
  11 C11           -1.9086    -4.1390    -1.2715 C.ar    
  12 C12           -2.1346    -4.7960    -2.4626 C.ar    
  13 C13           -2.2419    -4.0790    -3.6428 C.ar    
  14 C14           -2.1227    -2.6990    -3.6345 C.ar    
  15 C15           -1.9024    -2.0304    -2.4487 C.ar    
  16 C16            1.2629    -0.8013    -0.3273 C.3     
  17 C17            1.8784    -1.1033     1.0405 C.3     
  18 Cl18          -2.5265    -4.9131    -5.1385 Cl      
  19 H19           -3.9457    -0.8711     0.2801 H       
  20 H20           -4.2758     0.7597     0.5128 H       
  21 H21            1.3537     2.4378    -1.3084 H       
  22 H22            1.0415     3.1290     0.3019 H       
  23 H23            2.0673     1.6837     0.1375 H       
  24 H24           -1.8247    -4.6991    -0.3520 H       
  25 H25           -2.2277    -5.8720    -2.4754 H       
  26 H26           -2.2066    -2.1452    -4.5579 H       
  27 H27           -1.8097    -0.9544    -2.4434 H       
  28 H28            1.0271    -1.7371    -0.8341 H       
  29 H29            1.9727    -0.2319    -0.9274 H       
  30 H30            2.1142    -0.1676     1.5474 H       
  31 H31            1.1686    -1.6727     1.6406 H       
  32 H32            2.7908    -1.6847     0.9081 H       
@<TRIPOS>BOND
   1    1    2 2
   2    1    7 1
   3    1    5 1
   4    2    3 1
   5    2   16 1
   6    3    4 2
   7    3    8 1
   8    4    5 1
   9    4    6 1
  10    6   19 1
  11    6   20 1
  12    7   21 1
  13    7   22 1
  14    7   23 1
  15    8    9 1
  16    8   10 2
  17    9   11 ar
  18    9   15 ar
  19   11   12 ar
  20   11   24 1
  21   12   13 ar
  22   12   25 1
  23   13   14 ar
  24   13   18 1
  25   14   15 ar
  26   14   26 1
  27   15   27 1
  28   16   17 1
  29   16   28 1
  30   16   29 1
  31   17   30 1
  32   17   31 1
  33   17   32 1

#	End of record

