#	Name: ASD02198677
#	Creating user name:	WinNT
#	Creation time:	15. 06. 2019 20:19

#	Modifying user name:	WinNT
#	Modification time:	15. 06. 2019 20:19

#	Program:	/corina/corina34_cracker 3.40 0067  02.08.2006

@<TRIPOS>MOLECULE
ASD02198677
  54   58    0    0    0
SMALL
NO_CHARGES


@<TRIPOS>ATOM
   1 Cl1            1.3306     1.1806    -4.9322 Cl      
   2 C2            -0.0433     1.5018    -0.1149 C.2     
   3 C3            -0.0731     0.1622     0.0976 C.2     
   4 N4             1.0714    -0.5395     0.2604 N.pl3   
   5 N5             2.2360    -0.0048     0.2264 N.2     
   6 C6             2.4075     1.2845     0.0277 C.2     
   7 C7             1.2217     2.1358    -0.1604 C.2     
   8 C8             0.9800    -1.9172     0.4773 C.ar    
   9 C9             1.5823    -2.4878     1.5986 C.ar    
  10 C10            1.4909    -3.8515     1.8127 C.ar    
  11 C11            0.7970    -4.6518     0.9070 C.ar    
  12 C12            0.1964    -4.0766    -0.2127 C.ar    
  13 C13            0.2842    -2.7167    -0.4213 C.ar    
  14 C14            3.7645     1.8667    -0.0049 C.2     
  15 N15            4.3065     2.6065    -1.0182 N.pl3   
  16 N16            5.6086     2.9577    -0.6406 N.2     
  17 C17            5.8524     2.4583     0.5448 C.2     
  18 C18            4.7201     1.7714     0.9829 C.2     
  19 C19            3.6734     2.9514    -2.2190 C.ar    
  20 C20            3.8077     4.2345    -2.7326 C.ar    
  21 C21            3.1823     4.5723    -3.9171 C.ar    
  22 C22            2.4228     3.6346    -4.5916 C.ar    
  23 C23            2.2862     2.3547    -4.0825 C.ar    
  24 C24            2.9147     2.0092    -2.9011 C.ar    
  25 O25            1.3247     3.3388    -0.3486 O.2     
  26 C26            0.6976    -6.1138     1.1334 C.ar    
  27 N27            1.2717    -6.6551     2.2005 N.ar    
  28 C28           -0.0025    -6.9074     0.2271 C.ar    
  29 C29           -0.0866    -8.2707     0.4518 C.ar    
  30 C30            0.5329    -8.7961     1.5767 C.ar    
  31 C31            1.2066    -7.9492     2.4378 C.ar    
  32 C32            7.1410     2.6065     1.3119 C.3     
  33 O33            2.2588    -1.7048     2.4798 O.3     
  34 C34            2.8505    -2.3566     3.6054 C.3     
  35 H35           -0.9547     2.0655    -0.2494 H       
  36 H36           -1.0229    -0.3503     0.1376 H       
  37 H37            1.9569    -4.2952     2.6800 H       
  38 H38           -0.3412    -4.6965    -0.9149 H       
  39 H39           -0.1816    -2.2732    -1.2889 H       
  40 H40            4.6143     1.2520     1.9238 H       
  41 H41            4.4005     4.9679    -2.2063 H       
  42 H42            3.2864     5.5703    -4.3164 H       
  43 H43            1.9348     3.9013    -5.5175 H       
  44 H44            2.8084     1.0105    -2.5040 H       
  45 H45           -0.4733    -6.4650    -0.6384 H       
  46 H46           -0.6227    -8.9110    -0.2330 H       
  47 H47            0.4854    -9.8556     1.7804 H       
  48 H48            1.6899    -8.3550     3.3143 H       
  49 H49            7.0934     3.5011     1.9328 H       
  50 H50            7.2893     1.7319     1.9454 H       
  51 H51            7.9724     2.6935     0.6123 H       
  52 H52            2.0736    -2.8505     4.1890 H       
  53 H53            3.5710    -3.0975     3.2589 H       
  54 H54            3.3582    -1.6190     4.2269 H       
@<TRIPOS>BOND
   1    1   23 1
   2    2    3 2
   3    2    7 1
   4    2   35 1
   5    3    4 1
   6    3   36 1
   7    4    5 1
   8    4    8 1
   9    5    6 2
  10    6    7 1
  11    6   14 1
  12    7   25 2
  13    8    9 ar
  14    8   13 ar
  15    9   10 ar
  16    9   33 1
  17   10   11 ar
  18   10   37 1
  19   11   12 ar
  20   11   26 1
  21   12   13 ar
  22   12   38 1
  23   13   39 1
  24   14   15 1
  25   14   18 2
  26   15   16 1
  27   15   19 1
  28   16   17 2
  29   17   18 1
  30   17   32 1
  31   18   40 1
  32   19   20 ar
  33   19   24 ar
  34   20   21 ar
  35   20   41 1
  36   21   22 ar
  37   21   42 1
  38   22   23 ar
  39   22   43 1
  40   23   24 ar
  41   24   44 1
  42   26   27 ar
  43   26   28 ar
  44   27   31 ar
  45   28   29 ar
  46   28   45 1
  47   29   30 ar
  48   29   46 1
  49   30   31 ar
  50   30   47 1
  51   31   48 1
  52   32   49 1
  53   32   50 1
  54   32   51 1
  55   33   34 1
  56   34   52 1
  57   34   53 1
  58   34   54 1

#	End of record

