#	Name: ASD01148257
#	Creating user name:	WinNT
#	Creation time:	15. 06. 2019 19:02

#	Modifying user name:	WinNT
#	Modification time:	15. 06. 2019 19:02

#	Program:	/corina/corina34_cracker 3.40 0067  02.08.2006

@<TRIPOS>MOLECULE
ASD01148257
  48   51    0    0    0
SMALL
NO_CHARGES


@<TRIPOS>ATOM
   1 C1            -0.0167     1.3791     0.0096 C.ar    
   2 C2             0.0021    -0.0041     0.0020 C.ar    
   3 C3            -1.1857    -0.7112     0.0100 C.ar    
   4 C4            -2.3919    -0.0365     0.0257 C.ar    
   5 C5            -2.4113     1.3460     0.0333 C.ar    
   6 C6            -1.2245     2.0540     0.0306 C.ar    
   7 C7            -3.7269     2.0809     0.0503 C.3     
   8 O8            -4.7306     1.3260     0.7589 O.3     
   9 C9            -3.6332     3.3645     0.9093 C.3     
  10 C10           -4.1229     2.8907     2.2645 C.2     
  11 N11           -4.7167     1.7554     2.1059 N.2     
  12 C12           -3.9495     3.6046     3.5448 C.ar    
  13 C13           -4.4523     3.0529     4.7260 C.ar    
  14 C14           -3.2776     4.8293     3.5764 C.ar    
  15 C15           -3.1161     5.4950     4.7703 C.ar    
  16 C16           -3.6239     4.9461     5.9505 C.ar    
  17 C17           -4.2907     3.7187     5.9198 C.ar    
  18 C18           -3.4504     5.6607     7.2320 C.2     
  19 O19           -2.8659     6.7261     7.2594 O.2     
  20 N20           -3.9402     5.1312     8.3705 N.am    
  21 C21           -4.1882     2.4053    -1.3720 C.3     
  22 F22           -4.3301     1.2181    -2.0984 F       
  23 F23           -5.4172     3.0718    -1.3230 F       
  24 F24           -3.2389     3.2226    -1.9951 F       
  25 Cl25           1.4746     2.2678     0.0002 Cl      
  26 C26           -3.7772     5.8027     9.5746 C.ar    
  27 N27           -4.2648     5.2682    10.6837 N.ar    
  28 N28           -3.1332     6.9598     9.5872 N.ar    
  29 C29           -2.9604     7.6253    10.7172 C.ar    
  30 C30           -3.4629     7.0974    11.8962 C.ar    
  31 C31           -4.1269     5.8816    11.8475 C.ar    
  32 C32           -1.1654    -2.2180     0.0013 C.3     
  33 F33            0.1596    -2.6665    -0.0147 F       
  34 F34           -1.8070    -2.6997     1.1474 F       
  35 F35           -1.8302    -2.6867    -1.1370 F       
  36 H36            0.9445    -0.5314    -0.0105 H       
  37 H37           -3.3197    -0.5894     0.0316 H       
  38 H38           -1.2398     3.1339     0.0365 H       
  39 H39           -2.6027     3.7145     0.9710 H       
  40 H40           -4.2845     4.1436     0.5133 H       
  41 H41           -4.9681     2.1043     4.7023 H       
  42 H42           -2.8848     5.2534     2.6642 H       
  43 H43           -2.5964     6.4414     4.7948 H       
  44 H44           -4.6832     3.2945     6.8322 H       
  45 H45           -4.4067     4.2810     8.3486 H       
  46 H46           -2.4340     8.5683    10.7211 H       
  47 H47           -3.3358     7.6196    12.8330 H       
  48 H48           -4.5307     5.4428    12.7479 H       
@<TRIPOS>BOND
   1    1    2 ar
   2    1   25 1
   3    1    6 ar
   4    2    3 ar
   5    2   36 1
   6    3    4 ar
   7    3   32 1
   8    4    5 ar
   9    4   37 1
  10    5    6 ar
  11    5    7 1
  12    6   38 1
  13    7    8 1
  14    7    9 1
  15    7   21 1
  16    8   11 1
  17    9   10 1
  18    9   39 1
  19    9   40 1
  20   10   11 2
  21   10   12 1
  22   12   13 ar
  23   12   14 ar
  24   13   17 ar
  25   13   41 1
  26   14   15 ar
  27   14   42 1
  28   15   16 ar
  29   15   43 1
  30   16   17 ar
  31   16   18 1
  32   17   44 1
  33   18   19 2
  34   18   20 am
  35   20   26 1
  36   20   45 1
  37   21   22 1
  38   21   23 1
  39   21   24 1
  40   26   27 ar
  41   26   28 ar
  42   27   31 ar
  43   28   29 ar
  44   29   30 ar
  45   29   46 1
  46   30   31 ar
  47   30   47 1
  48   31   48 1
  49   32   33 1
  50   32   34 1
  51   32   35 1

#	End of record

