#	Name: ASD01208920
#	Creating user name:	WinNT
#	Creation time:	15. 06. 2019 19:10

#	Modifying user name:	WinNT
#	Modification time:	15. 06. 2019 19:10

#	Program:	/corina/corina34_cracker 3.40 0067  02.08.2006

@<TRIPOS>MOLECULE
ASD01208920
  80   83    0    0    0
SMALL
NO_CHARGES


@<TRIPOS>ATOM
   1 S1             0.3720     1.6549    -0.9085 S.3     
   2 C2             0.3049    -0.0333    -1.1668 C.2     
   3 N3             1.4536    -0.4763    -1.5895 N.2     
   4 C4             2.4158     0.3972    -1.7381 C.2     
   5 C5             2.0586     1.6788    -1.4178 C.2     
   6 C6             2.9213     2.8561    -1.4860 C.2     
   7 O7             4.0750     2.7444    -1.8559 O.2     
   8 O8             2.4386     4.0673    -1.1386 O.3     
   9 C9            -1.9568    -0.2584    -0.5147 C.2     
  10 C10           -3.1521    -1.0982    -0.2889 C.ar    
  11 C11           -4.3375    -0.5200     0.1676 C.ar    
  12 C12           -5.4550    -1.3104     0.3779 C.ar    
  13 C13           -5.3975    -2.6754     0.1356 C.ar    
  14 C14           -4.2210    -3.2545    -0.3178 C.ar    
  15 C15           -3.1001    -2.4702    -0.5368 C.ar    
  16 O16           -2.0055     0.9374    -0.3030 O.2     
  17 N17           -0.8131    -0.8188    -0.9555 N.am    
  18 O18           -4.1699    -4.5919    -0.5531 O.3     
  19 C19           -3.5537    -5.3782     0.3671 C.ar    
  20 C20           -3.4339    -6.7438     0.1425 C.ar    
  21 C21           -2.8093    -7.5449     1.0738 C.ar    
  22 C22           -2.2961    -6.9821     2.2441 C.ar    
  23 C23           -2.4181    -5.6090     2.4660 C.ar    
  24 C24           -3.0398    -4.8138     1.5277 C.ar    
  25 O25           -1.0877    -7.4311     4.4127 O.3     
  26 C26           -1.6262    -7.8376     3.2455 C.2     
  27 N27           -1.4443    -9.1352     3.1645 N.2     
  28 N28           -0.8254    -9.5433     4.2160 N.2     
  29 C29           -0.5896    -8.5315     5.0033 C.2     
  30 C30            0.1142    -8.5854     6.3348 C.3     
  31 O31           -6.6097    -0.7484     0.8228 O.3     
  32 C32           -8.6134    -0.9756     2.1547 C.3     
  33 C33           -7.6860    -1.6359     1.1326 C.3     
  34 C34           -8.4722    -1.9487    -0.1421 C.3     
  35 O35           -9.2279     0.1734     1.5679 O.3     
  36 C36          -10.1187     0.8672     2.4437 C.3     
  37 C37            3.7948     0.0254    -2.2190 C.3     
  38 O38            3.8434     0.1186    -3.6441 O.3     
  39 C39            5.1145    -0.2152    -4.2054 C.3     
  40 C40            5.4733    -1.6555    -3.8347 C.3     
  41 C41            5.0506    -0.0813    -5.7282 C.3     
  42 C42            6.1804     0.7340    -3.6543 C.3     
  43 C43            3.3375     5.1744    -1.2294 C.3     
  44 C44            2.6168     6.4533    -0.7983 C.3     
  45 H45           -4.3832     0.5423     0.3568 H       
  46 H46           -6.2709    -3.2889     0.3007 H       
  47 H47           -2.1861    -2.9209    -0.8943 H       
  48 H48           -0.7743    -1.7732    -1.1246 H       
  49 H49           -3.8310    -7.1784    -0.7629 H       
  50 H50           -2.7172    -8.6066     0.8989 H       
  51 H51           -2.0228    -5.1701     3.3702 H       
  52 H52           -3.1312    -3.7510     1.6969 H       
  53 H53           -0.6169    -8.7539     7.1256 H       
  54 H54            0.8386    -9.3997     6.3302 H       
  55 H55            0.6297    -7.6414     6.5118 H       
  56 H56           -9.3838    -1.6847     2.4577 H       
  57 H57           -8.0351    -0.6724     3.0275 H       
  58 H58           -7.2861    -2.5605     1.5489 H       
  59 H59           -9.2931    -2.6256     0.0942 H       
  60 H60           -8.8721    -1.0241    -0.5584 H       
  61 H61           -7.8114    -2.4191    -0.8703 H       
  62 H62          -10.5437     1.7259     1.9241 H       
  63 H63          -10.9203     0.1963     2.7527 H       
  64 H64           -9.5716     1.2086     3.3225 H       
  65 H65            4.5268     0.7066    -1.7852 H       
  66 H66            4.0230    -0.9958    -1.9137 H       
  67 H67            4.7139    -2.3317    -4.2273 H       
  68 H68            6.4428    -1.9101    -4.2628 H       
  69 H69            5.5188    -1.7509    -2.7498 H       
  70 H70            4.7950     0.9449    -5.9923 H       
  71 H71            6.0201    -0.3359    -6.1563 H       
  72 H72            4.2912    -0.7574    -6.1208 H       
  73 H73            6.2260     0.6386    -2.5694 H       
  74 H74            7.1500     0.4794    -4.0824 H       
  75 H75            5.9248     1.7601    -3.9184 H       
  76 H76            4.1933     5.0021    -0.5767 H       
  77 H77            3.6809     5.2802    -2.2585 H       
  78 H78            3.3025     7.2978    -0.8676 H       
  79 H79            1.7610     6.6257    -1.4510 H       
  80 H80            2.2734     6.3476     0.2308 H       
@<TRIPOS>BOND
   1    1    2 1
   2    1    5 1
   3    2    3 2
   4    2   17 1
   5    3    4 1
   6    4    5 2
   7    4   37 1
   8    5    6 1
   9    6    7 2
  10    6    8 1
  11    8   43 1
  12    9   10 1
  13    9   16 2
  14    9   17 am
  15   10   11 ar
  16   10   15 ar
  17   11   12 ar
  18   11   45 1
  19   12   13 ar
  20   12   31 1
  21   13   14 ar
  22   13   46 1
  23   14   15 ar
  24   14   18 1
  25   15   47 1
  26   17   48 1
  27   18   19 1
  28   19   20 ar
  29   19   24 ar
  30   20   21 ar
  31   20   49 1
  32   21   22 ar
  33   21   50 1
  34   22   23 ar
  35   22   26 1
  36   23   24 ar
  37   23   51 1
  38   24   52 1
  39   25   26 1
  40   25   29 1
  41   26   27 2
  42   27   28 1
  43   28   29 2
  44   29   30 1
  45   30   53 1
  46   30   54 1
  47   30   55 1
  48   31   33 1
  49   32   33 1
  50   32   35 1
  51   32   56 1
  52   32   57 1
  53   33   34 1
  54   33   58 1
  55   34   59 1
  56   34   60 1
  57   34   61 1
  58   35   36 1
  59   36   62 1
  60   36   63 1
  61   36   64 1
  62   37   38 1
  63   37   65 1
  64   37   66 1
  65   38   39 1
  66   39   40 1
  67   39   42 1
  68   39   41 1
  69   40   67 1
  70   40   68 1
  71   40   69 1
  72   41   70 1
  73   41   71 1
  74   41   72 1
  75   42   73 1
  76   42   74 1
  77   42   75 1
  78   43   44 1
  79   43   76 1
  80   43   77 1
  81   44   78 1
  82   44   79 1
  83   44   80 1

#	End of record

