#	Name: ASD00069471
#	Creating user name:	WinNT
#	Creation time:	15. 06. 2019 18:29

#	Modifying user name:	WinNT
#	Modification time:	15. 06. 2019 18:29

#	Program:	/corina/corina34_cracker 3.40 0067  02.08.2006

@<TRIPOS>MOLECULE
ASD00069471
  65   66    0    0    0
SMALL
NO_CHARGES


@<TRIPOS>ATOM
   1 N1             0.8469    -0.4921    -0.8673 N.pl3   
   2 C2            -0.2367    -0.2923    -0.0882 C.2     
   3 N3             1.6663     0.6394    -0.7645 N.2     
   4 C4             1.0917     1.4878     0.0491 C.2     
   5 C5            -0.1103     0.9246     0.4899 C.2     
   6 C6             0.9105    -1.3591    -3.1542 C.3     
   7 C7             1.1211    -1.6844    -1.6731 C.3     
   8 O8             2.4726    -2.0996    -1.4655 O.3     
   9 C9             2.8393    -3.2761    -2.1891 C.3     
  10 C10            2.6977    -3.0147    -3.6908 C.3     
  11 C11            1.2569    -2.5923    -3.9941 C.3     
  12 C12            1.6320     2.8381     0.4438 C.3     
  13 F13            2.7973     3.1046    -0.2829 F       
  14 F14            0.6757     3.8215     0.1688 F       
  15 F15            1.9245     2.8416     1.8119 F       
  16 Sn16          -1.8714    -1.6618     0.1849 Du      
  17 C17           -5.7408    -4.3452    -2.6858 C.3     
  18 C18           -4.5775    -3.3706    -2.8801 C.3     
  19 C19           -3.9361    -3.0654    -1.5250 C.3     
  20 C20           -2.7728    -2.0908    -1.7193 C.3     
  21 C21            1.2343    -6.1906    -0.3077 C.3     
  22 C22            0.2666    -5.5117     0.6636 C.3     
  23 C23           -0.1727    -4.1641     0.0874 C.3     
  24 C24           -1.1404    -3.4852     1.0587 C.3     
  25 C25           -5.6108     2.2958     1.0642 C.3     
  26 C26           -4.9038     1.1438     1.7812 C.3     
  27 C27           -3.9521     0.4450     0.8082 C.3     
  28 C28           -3.3357    -0.7791     1.4884 C.3     
  29 H29           -0.8132     1.3803     1.1716 H       
  30 H30           -0.1309    -1.0847    -3.3224 H       
  31 H31            1.5574    -0.5299    -3.4406 H       
  32 H32            0.4447    -2.4864    -1.3774 H       
  33 H33            3.8731    -3.5356    -1.9611 H       
  34 H34            2.1856    -4.0991    -1.9001 H       
  35 H35            3.3808    -2.2190    -3.9881 H       
  36 H36            2.9345    -3.9243    -4.2428 H       
  37 H37            0.5776    -3.4070    -3.7431 H       
  38 H38            1.1629    -2.3506    -5.0528 H       
  39 H39           -5.3702    -5.2696    -2.2427 H       
  40 H40           -6.4832    -3.8977    -2.0249 H       
  41 H41           -6.1978    -4.5626    -3.6512 H       
  42 H42           -3.8351    -3.8181    -3.5409 H       
  43 H43           -4.9481    -2.4462    -3.3231 H       
  44 H44           -4.6785    -2.6178    -0.8642 H       
  45 H45           -3.5655    -3.9897    -1.0820 H       
  46 H46           -3.1434    -1.1664    -2.1624 H       
  47 H47           -2.0304    -2.5383    -2.3802 H       
  48 H48            1.5472    -7.1506     0.1028 H       
  49 H49            0.7370    -6.3493    -1.2645 H       
  50 H50            2.1081    -5.5555    -0.4532 H       
  51 H51           -0.6073    -6.1468     0.8092 H       
  52 H52            0.7638    -5.3530     1.6205 H       
  53 H53            0.7011    -3.5290    -0.0581 H       
  54 H54           -0.6700    -4.3228    -0.8694 H       
  55 H55           -0.6214    -3.2591     1.9902 H       
  56 H56           -1.9783    -4.1520     1.2623 H       
  57 H57           -4.8783     3.0520     0.7816 H       
  58 H58           -6.1062     1.9178     0.1699 H       
  59 H59           -6.3514     2.7384     1.7303 H       
  60 H60           -4.3370     1.5349     2.6261 H       
  61 H61           -5.6451     0.4299     2.1402 H       
  62 H62           -4.5045     0.1292    -0.0768 H       
  63 H63           -3.1606     1.1349     0.5155 H       
  64 H64           -4.1176    -1.5078     1.7028 H       
  65 H65           -2.8572    -0.4751     2.4193 H       
@<TRIPOS>BOND
   1    1    2 1
   2    1    3 1
   3    1    7 1
   4    2   16 1
   5    2    5 2
   6    3    4 2
   7    4    5 1
   8    4   12 1
   9    5   29 1
  10    6    7 1
  11    6   11 1
  12    6   30 1
  13    6   31 1
  14    7    8 1
  15    7   32 1
  16    8    9 1
  17    9   10 1
  18    9   33 1
  19    9   34 1
  20   10   11 1
  21   10   35 1
  22   10   36 1
  23   11   37 1
  24   11   38 1
  25   12   13 1
  26   12   14 1
  27   12   15 1
  28   16   20 1
  29   16   24 1
  30   16   28 1
  31   17   18 1
  32   17   39 1
  33   17   40 1
  34   17   41 1
  35   18   19 1
  36   18   42 1
  37   18   43 1
  38   19   20 1
  39   19   44 1
  40   19   45 1
  41   20   46 1
  42   20   47 1
  43   21   22 1
  44   21   48 1
  45   21   49 1
  46   21   50 1
  47   22   23 1
  48   22   51 1
  49   22   52 1
  50   23   24 1
  51   23   53 1
  52   23   54 1
  53   24   55 1
  54   24   56 1
  55   25   26 1
  56   25   57 1
  57   25   58 1
  58   25   59 1
  59   26   27 1
  60   26   60 1
  61   26   61 1
  62   27   28 1
  63   27   62 1
  64   27   63 1
  65   28   64 1
  66   28   65 1

#	End of record

