#	Name: ASD02038617
#	Creating user name:	WinNT
#	Creation time:	15. 06. 2019 20:17

#	Modifying user name:	WinNT
#	Modification time:	15. 06. 2019 20:17

#	Program:	/corina/corina34_cracker 3.40 0067  02.08.2006

@<TRIPOS>MOLECULE
ASD02038617
  58   59    0    0    0
SMALL
NO_CHARGES


@<TRIPOS>ATOM
   1 C1             0.7649     0.7616    -0.1461 C.ar    
   2 C2             0.6329    -0.6164    -0.1841 C.ar    
   3 C3            -0.6218    -1.1933    -0.1208 C.ar    
   4 C4            -1.7495    -0.3895    -0.0189 C.ar    
   5 C5            -1.6134     0.9926     0.0190 C.ar    
   6 C6            -0.3575     1.5638    -0.0393 C.ar    
   7 N7            -3.0191    -0.9698     0.0448 N.pl3   
   8 C8            -4.2080    -0.1206     0.1523 C.3     
   9 C9            -5.4594    -0.9994     0.2046 C.3     
  10 N10           -5.3316    -1.9665     1.2976 N.am    
  11 C11           -6.0107    -3.1297     1.2510 C.2     
  12 C12           -5.8792    -4.1246     2.3753 C.3     
  13 O13           -6.6894    -5.2682     2.0966 O.3     
  14 C14           -6.6844    -6.2680     3.0186 C.ar    
  15 Cl15           2.3417     1.4835    -0.2252 Cl      
  16 C16           -7.4486    -7.4066     2.8105 C.ar    
  17 C17           -5.9108    -6.1508     4.1638 C.ar    
  18 C18           -5.9048    -7.1657     5.1005 C.ar    
  19 C19           -6.6739    -8.3035     4.8956 C.ar    
  20 C20           -7.4441    -8.4223     3.7463 C.ar    
  21 N21           -6.6684    -9.3324     5.8441 N.am    
  22 S22           -7.4902    -9.1484     7.2700 S.o2    
  23 O23           -7.2788   -10.3743     7.9570 O.2     
  24 Cl24           2.0437    -1.6198    -0.3120 Cl      
  25 O25           -7.0069    -7.9205     7.7971 O.2     
  26 C26           -9.2276    -8.9882     6.7738 C.3     
  27 C27           -6.6897    -0.1214     0.4418 C.3     
  28 C28           -7.9523    -0.9825     0.3700 C.3     
  29 C29           -9.1826    -0.1044     0.6072 C.3     
  30 C30          -10.4452    -0.9655     0.5355 C.3     
  31 O31           -6.7276    -3.3759     0.3042 O.2     
  32 H32           -0.7248    -2.2679    -0.1508 H       
  33 H33           -2.4891     1.6197     0.0979 H       
  34 H34           -0.2517     2.6382    -0.0095 H       
  35 H35           -3.1132    -1.9348     0.0180 H       
  36 H36           -4.1461     0.4779     1.0611 H       
  37 H37           -4.2631     0.5387    -0.7140 H       
  38 H38           -5.5695    -1.5315    -0.7403 H       
  39 H39           -4.7582    -1.7696     2.0548 H       
  40 H40           -4.8375    -4.4314     2.4690 H       
  41 H41           -6.2078    -3.6649     3.3074 H       
  42 H42           -8.0475    -7.4988     1.9165 H       
  43 H43           -5.3126    -5.2657     4.3230 H       
  44 H44           -5.3017    -7.0746     5.9918 H       
  45 H45           -8.0426    -9.3069     3.5862 H       
  46 H46           -6.1833   -10.1533     5.6664 H       
  47 H47           -9.5113    -9.8449     6.1624 H       
  48 H48           -9.8574    -8.9516     7.6626 H       
  49 H49           -9.3580    -8.0719     6.1980 H       
  50 H50           -6.6212     0.3418     1.4261 H       
  51 H51           -6.7351     0.6545    -0.3224 H       
  52 H52           -8.0208    -1.4456    -0.6143 H       
  53 H53           -7.9069    -1.7583     1.1343 H       
  54 H54           -9.1141     0.3587     1.5916 H       
  55 H55           -9.2281     0.6715    -0.1570 H       
  56 H56          -11.3217    -0.3400     0.7045 H       
  57 H57          -10.5137    -1.4286    -0.4488 H       
  58 H58          -10.3998    -1.7414     1.2997 H       
@<TRIPOS>BOND
   1    1    2 ar
   2    1   15 1
   3    1    6 ar
   4    2    3 ar
   5    2   24 1
   6    3    4 ar
   7    3   32 1
   8    4    5 ar
   9    4    7 1
  10    5    6 ar
  11    5   33 1
  12    6   34 1
  13    7    8 1
  14    7   35 1
  15    8    9 1
  16    8   36 1
  17    8   37 1
  18    9   10 1
  19    9   27 1
  20    9   38 1
  21   10   11 am
  22   10   39 1
  23   11   12 1
  24   11   31 2
  25   12   13 1
  26   12   40 1
  27   12   41 1
  28   13   14 1
  29   14   16 ar
  30   14   17 ar
  31   16   20 ar
  32   16   42 1
  33   17   18 ar
  34   17   43 1
  35   18   19 ar
  36   18   44 1
  37   19   20 ar
  38   19   21 1
  39   20   45 1
  40   21   22 am
  41   21   46 1
  42   22   23 2
  43   22   25 2
  44   22   26 1
  45   26   47 1
  46   26   48 1
  47   26   49 1
  48   27   28 1
  49   27   50 1
  50   27   51 1
  51   28   29 1
  52   28   52 1
  53   28   53 1
  54   29   30 1
  55   29   54 1
  56   29   55 1
  57   30   56 1
  58   30   57 1
  59   30   58 1

#	End of record

