#	Name: ASD02500860
#	Creating user name:	WinNT
#	Creation time:	15. 06. 2019 20:23

#	Modifying user name:	WinNT
#	Modification time:	15. 06. 2019 20:23

#	Program:	/corina/corina34_cracker 3.40 0067  02.08.2006

@<TRIPOS>MOLECULE
ASD02500860
  90   93    0    0    0
SMALL
NO_CHARGES


@<TRIPOS>ATOM
   1 C1            -0.4383     1.6685    -1.5701 C.ar    
   2 C2            -0.4502     0.6309    -0.6640 C.ar    
   3 C3            -1.3005    -0.4610    -0.8688 C.ar    
   4 C4            -2.1344    -0.4854    -2.0003 C.ar    
   5 C5            -2.1092     0.5671    -2.9021 C.ar    
   6 C6            -1.2685     1.6409    -2.6834 C.ar    
   7 N7            -1.5299    -1.6009    -0.1716 N.pl3   
   8 C8            -2.4435    -2.3235    -0.7918 C.cat   
   9 N9            -2.8487    -1.6711    -1.9328 N.pl3   
  10 Cl10           0.6166     3.0234    -1.3151 Cl      
  11 Cl11          -1.2394     2.9579    -3.8140 Cl      
  12 C12           -2.9303    -3.5747    -0.3515 C.2     
  13 C13           -2.0574    -4.5500     0.0292 C.2     
  14 C14           -2.5387    -5.7445     0.5802 C.2     
  15 C15           -1.6545    -6.7055     1.0210 C.2     
  16 N16           -1.9852    -7.9818     1.3980 N.pl3   
  17 C17           -0.8176    -8.6391     1.7775 C.ar    
  18 C18            0.2377    -7.7382     1.6252 C.ar    
  19 N19           -0.2988    -6.5444     1.1491 N.pl3   
  20 C20           -3.8480    -2.1411    -2.8955 C.3     
  21 C21           -5.2319    -1.6372    -2.4811 C.3     
  22 C22           -6.2755    -2.1280    -3.4866 C.3     
  23 C23           -7.6595    -1.6242    -3.0721 C.3     
  24 C24           -8.7031    -2.1150    -4.0776 C.3     
  25 C25           -0.8647    -1.9738     1.0793 C.3     
  26 C26           -1.6029    -1.3377     2.2588 C.3     
  27 C27           -0.8385    -1.6236     3.5529 C.3     
  28 C28           -1.6387    -1.0955     4.7452 C.3     
  29 C29            0.4539    -5.3245     0.8465 C.3     
  30 C30            0.7836    -5.2859    -0.6470 C.3     
  31 C31            1.4561    -3.9542    -0.9865 C.3     
  32 C32            1.6745    -3.8640    -2.4982 C.3     
  33 C33            2.3471    -2.5323    -2.8377 C.3     
  34 C34           -3.3336    -8.5545     1.4014 C.3     
  35 C35           -3.6154    -9.2035     0.0448 C.3     
  36 C36           -5.0237    -9.8017     0.0484 C.3     
  37 C37           -5.3055   -10.4507    -1.3082 C.3     
  38 C38           -0.5678    -9.9245     2.2379 C.ar    
  39 C39            0.7241   -10.3079     2.5438 C.ar    
  40 C40            1.7721    -9.4129     2.3930 C.ar    
  41 C41            1.5322    -8.1315     1.9348 C.ar    
  42 Cl42           1.0358   -11.9157     3.1196 Cl      
  43 Cl43           3.3913    -9.9038     2.7811 Cl      
  44 H44            0.1950     0.6601     0.2016 H       
  45 H45           -2.7493     0.5497    -3.7718 H       
  46 H46           -3.9940    -3.7583    -0.3166 H       
  47 H47           -0.9947    -4.4017    -0.0940 H       
  48 H48           -3.6026    -5.9124     0.6595 H       
  49 H49           -3.6045    -1.7598    -3.8872 H       
  50 H50           -3.8490    -3.2309    -2.9154 H       
  51 H51           -5.4754    -2.0185    -1.4894 H       
  52 H52           -5.2309    -0.5474    -2.4612 H       
  53 H53           -6.0321    -1.7468    -4.4782 H       
  54 H54           -6.2766    -3.2178    -3.5064 H       
  55 H55           -7.9030    -2.0055    -2.0804 H       
  56 H56           -7.6585    -0.5344    -3.0522 H       
  57 H57           -8.7041    -3.2048    -4.0974 H       
  58 H58           -9.6890    -1.7561    -3.7823 H       
  59 H59           -8.4596    -1.7337    -5.0693 H       
  60 H60           -0.8746    -3.0584     1.1867 H       
  61 H61            0.1661    -1.6198     1.0621 H       
  62 H62           -1.6701    -0.2604     2.1070 H       
  63 H63           -2.6061    -1.7580     2.3289 H       
  64 H64           -0.6943    -2.6987     3.6597 H       
  65 H65            0.1319    -1.1285     3.5187 H       
  66 H66           -1.7830    -0.0203     4.6384 H       
  67 H67           -2.6092    -1.5906     4.7795 H       
  68 H68           -1.0942    -1.2992     5.6672 H       
  69 H69           -0.1460    -4.4530     1.1088 H       
  70 H70            1.3788    -5.3158     1.4232 H       
  71 H71            1.4582    -6.1063    -0.8915 H       
  72 H72           -0.1353    -5.3865    -1.2247 H       
  73 H73            0.8185    -3.1319    -0.6619 H       
  74 H74            2.4172    -3.8920    -0.4762 H       
  75 H75            2.3122    -4.6862    -2.8229 H       
  76 H76            0.7134    -3.9261    -3.0085 H       
  77 H77            3.3082    -2.4701    -2.3274 H       
  78 H78            2.5027    -2.4680    -3.9146 H       
  79 H79            1.7094    -1.7101    -2.5130 H       
  80 H80           -3.4067    -9.3071     2.1864 H       
  81 H81           -4.0629    -7.7656     1.5853 H       
  82 H82           -3.5424    -8.4509    -0.7402 H       
  83 H83           -2.8861    -9.9924    -0.1391 H       
  84 H84           -5.0967   -10.5543     0.8335 H       
  85 H85           -5.7530    -9.0128     0.2323 H       
  86 H86           -5.2324    -9.6981    -2.0932 H       
  87 H87           -4.5761   -11.2396    -1.4921 H       
  88 H88           -6.3088   -10.8769    -1.3056 H       
  89 H89           -1.3820   -10.6239     2.3571 H       
  90 H90            2.3508    -7.4368     1.8184 H       
@<TRIPOS>BOND
   1    1    2 ar
   2    1   10 1
   3    1    6 ar
   4    2    3 ar
   5    2   44 1
   6    3    4 ar
   7    3    7 1
   8    4    5 ar
   9    4    9 1
  10    5    6 ar
  11    5   45 1
  12    6   11 1
  13    7    8 ar
  14    7   25 1
  15    8    9 ar
  16    8   12 1
  17    9   20 1
  18   12   13 2
  19   12   46 1
  20   13   14 1
  21   13   47 1
  22   14   15 2
  23   14   48 1
  24   15   16 1
  25   15   19 1
  26   16   17 1
  27   16   34 1
  28   17   18 ar
  29   17   38 ar
  30   18   19 1
  31   18   41 ar
  32   19   29 1
  33   20   21 1
  34   20   49 1
  35   20   50 1
  36   21   22 1
  37   21   51 1
  38   21   52 1
  39   22   23 1
  40   22   53 1
  41   22   54 1
  42   23   24 1
  43   23   55 1
  44   23   56 1
  45   24   57 1
  46   24   58 1
  47   24   59 1
  48   25   26 1
  49   25   60 1
  50   25   61 1
  51   26   27 1
  52   26   62 1
  53   26   63 1
  54   27   28 1
  55   27   64 1
  56   27   65 1
  57   28   66 1
  58   28   67 1
  59   28   68 1
  60   29   30 1
  61   29   69 1
  62   29   70 1
  63   30   31 1
  64   30   71 1
  65   30   72 1
  66   31   32 1
  67   31   73 1
  68   31   74 1
  69   32   33 1
  70   32   75 1
  71   32   76 1
  72   33   77 1
  73   33   78 1
  74   33   79 1
  75   34   35 1
  76   34   80 1
  77   34   81 1
  78   35   36 1
  79   35   82 1
  80   35   83 1
  81   36   37 1
  82   36   84 1
  83   36   85 1
  84   37   86 1
  85   37   87 1
  86   37   88 1
  87   38   39 ar
  88   38   89 1
  89   39   40 ar
  90   39   42 1
  91   40   41 ar
  92   40   43 1
  93   41   90 1

#	End of record

