#	Name: ASD00960224
#	Creating user name:	WinNT
#	Creation time:	15. 06. 2019 18:53

#	Modifying user name:	WinNT
#	Modification time:	15. 06. 2019 18:53

#	Program:	/corina/corina34_cracker 3.40 0067  02.08.2006

@<TRIPOS>MOLECULE
ASD00960224
  36   38    0    0    0
SMALL
NO_CHARGES


@<TRIPOS>ATOM
   1 C1            -0.1956     1.3529    -0.2946 C.2     
   2 C2            -0.2151    -0.0302    -0.3139 C.2     
   3 N3             1.0702     1.7797    -0.6025 N.pl3   
   4 C4             1.8623     0.6906    -0.8188 C.2     
   5 C5             1.0767    -0.4628    -0.6433 C.2     
   6 N6             1.6406     3.0555    -0.7222 N.2     
   7 C7             2.9049     3.1812    -1.0350 C.2     
   8 N8             3.6853     2.1286    -1.2482 N.2     
   9 C9             3.2201     0.8948    -1.1530 C.2     
  10 N10            4.0528    -0.1842    -1.3793 N.pl3   
  11 C11            1.5248    -1.8555    -0.7793 C.2     
  12 O12            2.3123    -2.1583    -1.6560 O.2     
  13 N13            1.0636    -2.7975     0.0671 N.am    
  14 C14           -1.3390     2.2178    -0.0004 C.2     
  15 O15           -2.4223     1.7276     0.2561 O.2     
  16 O16           -1.1915     3.5587    -0.0135 O.3     
  17 C17           -2.3495     4.3417     0.2829 C.3     
  18 C18           -1.9956     5.8053     0.2214 C.ar    
  19 C19           -2.1175     6.4964    -0.9696 C.ar    
  20 C20           -1.7928     7.8388    -1.0261 C.ar    
  21 C21           -1.3467     8.4904     0.1086 C.ar    
  22 C22           -1.2256     7.7995     1.2998 C.ar    
  23 C23           -1.5544     6.4580     1.3572 C.ar    
  24 H24           -1.0686    -0.6605    -0.1123 H       
  25 H25            3.3265     4.1717    -1.1227 H       
  26 H26            4.8755    -0.0655    -1.8793 H       
  27 H27            3.8147    -1.0605    -1.0382 H       
  28 H28            0.4358    -2.5560     0.7660 H       
  29 H29            1.3594    -3.7169    -0.0227 H       
  30 H30           -3.1305     4.1258    -0.4462 H       
  31 H31           -2.7079     4.0963     1.2826 H       
  32 H32           -2.4661     5.9874    -1.8561 H       
  33 H33           -1.8874     8.3786    -1.9567 H       
  34 H34           -1.0923     9.5390     0.0643 H       
  35 H35           -0.8767     8.3084     2.1861 H       
  36 H36           -1.4634     5.9192     2.2888 H       
@<TRIPOS>BOND
   1    1    2 2
   2    1    3 1
   3    1   14 1
   4    2    5 1
   5    2   24 1
   6    3    4 1
   7    3    6 1
   8    4    5 2
   9    4    9 1
  10    5   11 1
  11    6    7 2
  12    7    8 1
  13    7   25 1
  14    8    9 2
  15    9   10 1
  16   10   26 1
  17   10   27 1
  18   11   12 2
  19   11   13 am
  20   13   28 1
  21   13   29 1
  22   14   15 2
  23   14   16 1
  24   16   17 1
  25   17   18 1
  26   17   30 1
  27   17   31 1
  28   18   19 ar
  29   18   23 ar
  30   19   20 ar
  31   19   32 1
  32   20   21 ar
  33   20   33 1
  34   21   22 ar
  35   21   34 1
  36   22   23 ar
  37   22   35 1
  38   23   36 1

#	End of record

