#	Name: ASD02198765
#	Creating user name:	WinNT
#	Creation time:	15. 06. 2019 20:20

#	Modifying user name:	WinNT
#	Modification time:	15. 06. 2019 20:20

#	Program:	/corina/corina34_cracker 3.40 0067  02.08.2006

@<TRIPOS>MOLECULE
ASD02198765
  45   49    0    0    0
SMALL
NO_CHARGES


@<TRIPOS>ATOM
   1 F1             2.2523    -1.7153     2.4724 F       
   2 C2            -0.0432     1.5017    -0.1151 C.2     
   3 C3            -0.0730     0.1620     0.0974 C.2     
   4 N4             1.0713    -0.5396     0.2602 N.pl3   
   5 N5             2.2359    -0.0049     0.2266 N.2     
   6 C6             2.4075     1.2842     0.0280 C.2     
   7 C7             1.2217     2.1356    -0.1606 C.2     
   8 C8             0.9797    -1.9188     0.4767 C.ar    
   9 C9             1.5794    -2.4907     1.5942 C.ar    
  10 C10            1.4857    -3.8547     1.8043 C.ar    
  11 C11            0.7974    -4.6479     0.9052 C.ar    
  12 C12            0.2008    -4.0816    -0.2068 C.ar    
  13 C13            0.2850    -2.7198    -0.4205 C.ar    
  14 C14            3.7646     1.8664    -0.0041 C.2     
  15 N15            4.3070     2.6062    -1.0171 N.pl3   
  16 N16            5.6087     2.9579    -0.6387 N.2     
  17 C17            5.8520     2.4586     0.5469 C.2     
  18 C18            4.7198     1.7711     0.9841 C.2     
  19 C19            3.6746     2.9505    -2.2185 C.ar    
  20 C20            3.8087     4.2336    -2.7325 C.ar    
  21 C21            3.1838     4.5700    -3.9173 C.ar    
  22 C22            2.4253     3.6307    -4.5917 C.ar    
  23 C23            2.2899     2.3522    -4.0824 C.ar    
  24 C24            2.9169     2.0079    -2.9010 C.ar    
  25 O25            1.3248     3.3386    -0.3484 O.2     
  26 C26            0.6972    -6.1336     1.1370 C.3     
  27 C27           -0.7026    -6.7319     1.2904 C.3     
  28 C28            0.1021    -6.9853     0.0140 C.3     
  29 H29           -0.9546     2.0653    -0.2497 H       
  30 H30           -1.0228    -0.3505     0.1373 H       
  31 H31            1.9509    -4.3004     2.6711 H       
  32 H32           -0.3353    -4.7049    -0.9071 H       
  33 H33           -0.1814    -2.2793    -1.2893 H       
  34 H34            6.7753     2.5646     1.0970 H       
  35 H35            4.6135     1.2518     1.9251 H       
  36 H36            4.4006     4.9677    -2.2061 H       
  37 H37            3.2874     5.5678    -4.3175 H       
  38 H38            1.9374     3.8963    -5.5178 H       
  39 H39            1.6965     1.6210    -4.6112 H       
  40 H40            2.8108     1.0092    -2.5037 H       
  41 H41            1.4997    -6.5720     1.7304 H       
  42 H42           -0.8209    -7.5641     1.9843 H       
  43 H43           -1.5510    -6.0509     1.2236 H       
  44 H44           -0.2170    -6.4711    -0.8926 H       
  45 H45            0.5131    -7.9843    -0.1319 H       
@<TRIPOS>BOND
   1    1    9 1
   2    2    3 2
   3    2    7 1
   4    2   29 1
   5    3    4 1
   6    3   30 1
   7    4    5 1
   8    4    8 1
   9    5    6 2
  10    6    7 1
  11    6   14 1
  12    7   25 2
  13    8    9 ar
  14    8   13 ar
  15    9   10 ar
  16   10   11 ar
  17   10   31 1
  18   11   12 ar
  19   11   26 1
  20   12   13 ar
  21   12   32 1
  22   13   33 1
  23   14   15 1
  24   14   18 2
  25   15   16 1
  26   15   19 1
  27   16   17 2
  28   17   18 1
  29   17   34 1
  30   18   35 1
  31   19   20 ar
  32   19   24 ar
  33   20   21 ar
  34   20   36 1
  35   21   22 ar
  36   21   37 1
  37   22   23 ar
  38   22   38 1
  39   23   24 ar
  40   23   39 1
  41   24   40 1
  42   26   27 1
  43   26   28 1
  44   26   41 1
  45   27   28 1
  46   27   42 1
  47   27   43 1
  48   28   44 1
  49   28   45 1

#	End of record

