#	Name: ASD01882309
#	Creating user name:	WinNT
#	Creation time:	15. 06. 2019 19:44

#	Modifying user name:	WinNT
#	Modification time:	15. 06. 2019 19:44

#	Program:	/corina/corina34_cracker 3.40 0067  02.08.2006

@<TRIPOS>MOLECULE
ASD01882309
  54   57    0    0    0
SMALL
NO_CHARGES


@<TRIPOS>ATOM
   1 C1             0.7418     1.4446    -1.2210 C.2     
   2 C2             1.1257     0.0924    -1.1938 C.2     
   3 C3             0.6396    -0.7191    -0.2041 C.2     
   4 C4            -0.2347    -0.1858     0.7673 C.2     
   5 C5            -0.5895     1.1134     0.7221 C.2     
   6 N6            -0.1108     1.9309    -0.2600 N.pl3   
   7 N7             0.4207     3.5148    -1.6198 N.2     
   8 N8             1.0351     2.4581    -2.0215 N.2     
   9 C9            -0.2882     3.2509    -0.5539 C.2     
  10 C10           -1.1433     4.2273     0.2119 C.3     
  11 O11           -0.3587     4.8506     1.2307 O.3     
  12 C12           -1.0787     5.7999     2.0196 C.3     
  13 C13           -0.1451     6.4008     3.0723 C.3     
  14 N14            1.0050    -2.0623    -0.1564 N.pl3   
  15 C15            2.3934    -2.4573     0.1259 C.3     
  16 C16            2.3852    -3.4889     1.2590 C.3     
  17 N17            1.4848    -4.5941     0.9043 N.3     
  18 C18            0.0984    -4.1286     0.7665 C.3     
  19 C19            0.0116    -3.1234    -0.3808 C.3     
  20 C20            1.5744    -5.6313     1.8355 C.ar    
  21 C21            0.9722    -5.5028     3.0807 C.ar    
  22 C22            1.0623    -6.5304     3.9989 C.ar    
  23 C23            1.7510    -7.6864     3.6798 C.ar    
  24 C24            2.3516    -7.8176     2.4412 C.ar    
  25 C25            2.2609    -6.7959     1.5163 C.ar    
  26 C26            3.8010    -4.0304     1.4668 C.3     
  27 C27            1.8969    -2.8266     2.5489 C.3     
  28 Cl28           2.2019    -0.5404    -2.4001 Cl      
  29 H29           -0.6213    -0.8218     1.5499 H       
  30 H30           -1.2594     1.5113     1.4701 H       
  31 H31           -1.5250     4.9880    -0.4692 H       
  32 H32           -1.9786     3.6975     0.6697 H       
  33 H33           -1.4590     6.5932     1.3761 H       
  34 H34           -1.9127     5.3027     2.5150 H       
  35 H35            0.2353     5.6076     3.7159 H       
  36 H36            0.6889     6.8981     2.5770 H       
  37 H37           -0.6943     7.1250     3.6741 H       
  38 H38            2.8375    -2.8976    -0.7669 H       
  39 H39            2.9681    -1.5828     0.4310 H       
  40 H40           -0.5515    -4.9783     0.5572 H       
  41 H41           -0.2176    -3.6478     1.6923 H       
  42 H42           -0.9877    -2.6890    -0.4105 H       
  43 H43            0.2223    -3.6289    -1.3232 H       
  44 H44            0.4345    -4.6001     3.3306 H       
  45 H45            0.5947    -6.4310     4.9673 H       
  46 H46            1.8203    -8.4884     4.3999 H       
  47 H47            2.8887    -8.7217     2.1952 H       
  48 H48            2.7265    -6.9008     0.5475 H       
  49 H49            4.4949    -3.1980     1.5832 H       
  50 H50            3.8248    -4.6513     2.3623 H       
  51 H51            4.0919    -4.6278     0.6027 H       
  52 H52            0.9197    -2.3750     2.3781 H       
  53 H53            1.8179    -3.5771     3.3354 H       
  54 H54            2.6054    -2.0557     2.8522 H       
@<TRIPOS>BOND
   1    1    2 1
   2    1    6 1
   3    1    8 2
   4    2    3 2
   5    2   28 1
   6    3    4 1
   7    3   14 1
   8    4    5 2
   9    4   29 1
  10    5    6 1
  11    5   30 1
  12    6    9 1
  13    7    8 1
  14    7    9 2
  15    9   10 1
  16   10   11 1
  17   10   31 1
  18   10   32 1
  19   11   12 1
  20   12   13 1
  21   12   33 1
  22   12   34 1
  23   13   35 1
  24   13   36 1
  25   13   37 1
  26   14   15 1
  27   14   19 1
  28   15   16 1
  29   15   38 1
  30   15   39 1
  31   16   17 1
  32   16   26 1
  33   16   27 1
  34   17   18 1
  35   17   20 1
  36   18   19 1
  37   18   40 1
  38   18   41 1
  39   19   42 1
  40   19   43 1
  41   20   21 ar
  42   20   25 ar
  43   21   22 ar
  44   21   44 1
  45   22   23 ar
  46   22   45 1
  47   23   24 ar
  48   23   46 1
  49   24   25 ar
  50   24   47 1
  51   25   48 1
  52   26   49 1
  53   26   50 1
  54   26   51 1
  55   27   52 1
  56   27   53 1
  57   27   54 1

#	End of record

