#	Name: ASD01900797
#	Creating user name:	WinNT
#	Creation time:	15. 06. 2019 19:52

#	Modifying user name:	WinNT
#	Modification time:	15. 06. 2019 19:52

#	Program:	/corina/corina34_cracker 3.40 0067  02.08.2006

@<TRIPOS>MOLECULE
ASD01900797
  33   36    0    0    0
SMALL
NO_CHARGES


@<TRIPOS>ATOM
   1 C1            -1.1920    -0.7160     0.0083 C.ar    
   2 N2             0.0021    -0.0041     0.0020 N.pl3   
   3 C3             1.2262    -0.6856     0.0926 C.2     
   4 C4            -2.4031    -0.0310     0.0312 C.ar    
   5 N5            -1.1668    -2.0398    -0.0131 N.ar    
   6 C6            -2.2771    -2.7531    -0.0081 C.ar    
   7 C7            -3.5130    -2.1389     0.0199 C.ar    
   8 C8            -3.5833    -0.7519     0.0372 C.ar    
   9 N9             1.2914    -1.9877     0.2828 N.2     
  10 C10            2.4805    -2.5160     0.3513 C.2     
  11 S11            3.6884    -1.2488     0.1568 S.3     
  12 C12            2.4042    -0.0542    -0.0143 C.2     
  13 C13            2.7699    -3.9514     0.5600 C.2     
  14 C14            1.8473    -4.9483     0.7131 C.2     
  15 C15            4.0484    -4.5429     0.6314 C.2     
  16 N16            3.8913    -5.8253     0.8231 N.2     
  17 N17            2.5205    -6.1040     0.8780 N.pl3   
  18 C18            5.3656    -3.8212     0.5079 C.3     
  19 C19            6.3273    -3.8983     1.6954 C.3     
  20 C20            6.6322    -4.6742     0.4125 C.3     
  21 H21           -0.0105     0.9635    -0.0650 H       
  22 H22           -2.4212     1.0487     0.0445 H       
  23 H23           -2.2180    -3.8313    -0.0264 H       
  24 H24           -4.4162    -2.7310     0.0238 H       
  25 H25           -4.5381    -0.2477     0.0595 H       
  26 H26            2.5422     1.0052    -0.1725 H       
  27 H27            0.7737    -4.8310     0.7042 H       
  28 H28            2.1233    -6.9788     1.0117 H       
  29 H29            5.3407    -2.8913    -0.0600 H       
  30 H30            6.9354    -3.0191     1.9084 H       
  31 H31            6.0073    -4.4710     2.5659 H       
  32 H32            6.5127    -5.7573     0.4389 H       
  33 H33            7.4409    -4.3055    -0.2186 H       
@<TRIPOS>BOND
   1    1    2 1
   2    1    4 ar
   3    1    5 ar
   4    2    3 1
   5    2   21 1
   6    3    9 1
   7    3   12 2
   8    4    8 ar
   9    4   22 1
  10    5    6 ar
  11    6    7 ar
  12    6   23 1
  13    7    8 ar
  14    7   24 1
  15    8   25 1
  16    9   10 2
  17   10   11 1
  18   10   13 1
  19   11   12 1
  20   12   26 1
  21   13   14 2
  22   13   15 1
  23   14   17 1
  24   14   27 1
  25   15   16 2
  26   15   18 1
  27   16   17 1
  28   17   28 1
  29   18   19 1
  30   18   20 1
  31   18   29 1
  32   19   20 1
  33   19   30 1
  34   19   31 1
  35   20   32 1
  36   20   33 1

#	End of record

