#	Name: ASD01812976
#	Creating user name:	WinNT
#	Creation time:	15. 06. 2019 19:29

#	Modifying user name:	WinNT
#	Modification time:	15. 06. 2019 19:29

#	Program:	/corina/corina34_cracker 3.40 0067  02.08.2006

@<TRIPOS>MOLECULE
ASD01812976
  57   61    0    0    0
SMALL
NO_CHARGES


@<TRIPOS>ATOM
   1 C1            -0.0166     1.3764     0.0096 C.ar    
   2 C2             0.0021    -0.0041     0.0020 C.ar    
   3 C3             1.2089    -0.6872    -0.0127 C.ar    
   4 C4             2.3941     0.0075    -0.0203 C.ar    
   5 C5             2.3941     1.4057    -0.0132 C.ar    
   6 C6             1.1719     2.0915     0.0021 C.ar    
   7 C7             3.8413    -0.4177    -0.0364 C.3     
   8 N8             4.6313     0.8189    -0.0378 N.am    
   9 C9             3.7915     1.8684    -0.0244 C.2     
  10 C10            6.0942     0.8968    -0.0511 C.3     
  11 C11            6.5825     0.9304    -1.4764 C.ar    
  12 O12            1.1515     3.4479     0.0091 O.3     
  13 O13            4.1370     3.0341    -0.0215 O.2     
  14 C14            6.7421     2.1434    -2.1218 C.ar    
  15 C15            7.1894     2.1798    -3.4270 C.ar    
  16 C16            7.4804     0.9922    -4.0944 C.ar    
  17 C17            7.3179    -0.2266    -3.4397 C.ar    
  18 C18            6.8750    -0.2515    -2.1327 C.ar    
  19 C19           -0.1314     4.0773     0.0243 C.3     
  20 C20            0.0435     5.5741     0.0301 C.2     
  21 C21            8.2816    -0.0558    -6.2669 C.2     
  22 C22            7.9615     1.0253    -5.4986 C.2     
  23 C23            8.1704     2.1785    -6.2799 C.2     
  24 N24            8.5945     1.8003    -7.4565 N.2     
  25 N25            8.6726     0.4024    -7.4731 N.pl3   
  26 C26            9.1050    -0.4203    -8.6055 C.3     
  27 C27            0.9985     7.5841     0.0278 C.2     
  28 C28            1.2639     6.2573     0.0166 C.2     
  29 N29           -0.9202     6.4590     0.0431 N.2     
  30 N30           -0.3425     7.7352     0.0444 N.pl3   
  31 C31           -1.0661     9.0088     0.0614 C.3     
  32 C32            2.0176     8.6942     0.0199 C.3     
  33 H33           -0.9604     1.9015     0.0169 H       
  34 H34           -0.9272    -0.5544     0.0079 H       
  35 H35            1.2170    -1.7672    -0.0179 H       
  36 H36            4.0688    -1.0067     0.8521 H       
  37 H37            4.0515    -0.9977    -0.9350 H       
  38 H38            6.4145     1.8024     0.4641 H       
  39 H39            6.5091     0.0250     0.4546 H       
  40 H40            6.5159     3.0635    -1.6036 H       
  41 H41            7.3133     3.1274    -3.9301 H       
  42 H42            7.5421    -1.1503    -3.9526 H       
  43 H43            6.7526    -1.1957    -1.6229 H       
  44 H44           -0.6922     3.7805    -0.8620 H       
  45 H45           -0.6756     3.7715     0.9178 H       
  46 H46            8.2347    -1.0909    -5.9624 H       
  47 H47            8.0079     3.1978    -5.9619 H       
  48 H48            8.2417    -0.6750    -9.2202 H       
  49 H49            9.8260     0.1360    -9.2044 H       
  50 H50            9.5691    -1.3341    -8.2344 H       
  51 H51            2.2448     5.8056     0.0006 H       
  52 H52           -1.2575     9.3317    -0.9619 H       
  53 H53           -2.0134     8.8815     0.5854 H       
  54 H54           -0.4659     9.7609     0.5735 H       
  55 H55            2.2487     8.9679    -1.0095 H       
  56 H56            1.6152     9.5606     0.5447 H       
  57 H57            2.9261     8.3569     0.5189 H       
@<TRIPOS>BOND
   1    1    2 ar
   2    1    6 ar
   3    1   33 1
   4    2    3 ar
   5    2   34 1
   6    3    4 ar
   7    3   35 1
   8    4    7 1
   9    4    5 ar
  10    5    6 ar
  11    5    9 1
  12    6   12 1
  13    7    8 1
  14    7   36 1
  15    7   37 1
  16    8    9 am
  17    8   10 1
  18    9   13 2
  19   10   11 1
  20   10   38 1
  21   10   39 1
  22   11   14 ar
  23   11   18 ar
  24   12   19 1
  25   14   15 ar
  26   14   40 1
  27   15   16 ar
  28   15   41 1
  29   16   17 ar
  30   16   22 1
  31   17   18 ar
  32   17   42 1
  33   18   43 1
  34   19   20 1
  35   19   44 1
  36   19   45 1
  37   20   29 2
  38   20   28 1
  39   21   22 2
  40   21   25 1
  41   21   46 1
  42   22   23 1
  43   23   24 2
  44   23   47 1
  45   24   25 1
  46   25   26 1
  47   26   48 1
  48   26   49 1
  49   26   50 1
  50   27   28 2
  51   27   30 1
  52   27   32 1
  53   28   51 1
  54   29   30 1
  55   30   31 1
  56   31   52 1
  57   31   53 1
  58   31   54 1
  59   32   55 1
  60   32   56 1
  61   32   57 1

#	End of record

