#	Name: ASD09750010
#	Creating user name:	WinNT
#	Creation time:	15. 06. 2019 21:23

#	Modifying user name:	WinNT
#	Modification time:	15. 06. 2019 21:23

#	Program:	/corina/corina34_cracker 3.40 0067  02.08.2006

@<TRIPOS>MOLECULE
ASD09750010
  48   50    0    0    0
SMALL
NO_CHARGES


@<TRIPOS>ATOM
   1 C1            -0.4422     2.1463     0.0026 C.ar    
   2 C2            -0.2486     0.7796    -0.1732 C.ar    
   3 C3            -1.3384    -0.0761    -0.1808 C.ar    
   4 C4            -2.6146     0.4285    -0.0139 C.ar    
   5 C5            -2.8070     1.7864     0.1603 C.ar    
   6 C6            -1.7235     2.6449     0.1751 C.ar    
   7 O7             0.6242     2.9902     0.0107 O.3     
   8 C8             0.3500     4.3804     0.1961 C.3     
   9 O9             1.0074     0.2849    -0.3377 O.3     
  10 C10           -4.2004     2.3313     0.3408 C.3     
  11 C11           -5.0311     1.9972    -0.8714 C.2     
  12 C12           -5.6860     0.8081    -0.9496 C.2     
  13 N13           -5.6358    -0.0970     0.0880 N.am    
  14 C14           -5.1852     0.2675     1.3013 C.2     
  15 C15           -4.8352     1.7056     1.5841 C.3     
  16 O16           -5.0593    -0.5660     2.1729 O.2     
  17 C17           -5.1316     2.9375    -1.9468 C.1     
  18 N18           -5.2114     3.6834    -2.7998 N.1     
  19 S19           -6.6119     0.4196    -2.3974 S.3     
  20 C20           -7.2329    -1.2187    -1.9432 C.3     
  21 C21           -8.0775    -1.7648    -3.0655 C.2     
  22 O22           -8.2433    -1.1106    -4.0733 O.2     
  23 N23           -8.6486    -2.9800    -2.9494 N.am    
  24 C24           -9.5113    -3.4461    -3.9481 C.ar    
  25 C25           -9.2672    -3.1347    -5.2792 C.ar    
  26 C26          -10.1198    -3.5964    -6.2626 C.ar    
  27 C27          -11.2167    -4.3681    -5.9227 C.ar    
  28 C28          -11.4623    -4.6799    -4.5972 C.ar    
  29 C29          -10.6098    -4.2257    -3.6102 C.ar    
  30 Br30         -12.3826    -4.9974    -7.2719 Br      
  31 H31           -1.1909    -1.1372    -0.3174 H       
  32 H32           -3.4632    -0.2395    -0.0200 H       
  33 H33           -1.8765     3.7053     0.3114 H       
  34 H34            1.2852     4.9401     0.1822 H       
  35 H35           -0.2967     4.7334    -0.6072 H       
  36 H36           -0.1475     4.5279     1.1546 H       
  37 H37            1.4450     0.0398     0.4890 H       
  38 H38           -4.1543     3.4135     0.4624 H       
  39 H39           -5.9299    -1.0096    -0.0587 H       
  40 H40           -4.1305     1.7514     2.4144 H       
  41 H41           -5.7398     2.2550     1.8449 H       
  42 H42           -6.3923    -1.8886    -1.7621 H       
  43 H43           -7.8366    -1.1406    -1.0390 H       
  44 H44           -8.4618    -3.5316    -2.1736 H       
  45 H45           -8.4115    -2.5318    -5.5450 H       
  46 H46           -9.9304    -3.3545    -7.2980 H       
  47 H47          -12.3195    -5.2822    -4.3345 H       
  48 H48          -10.8020    -4.4693    -2.5757 H       
@<TRIPOS>BOND
   1    1    2 ar
   2    1    7 1
   3    1    6 ar
   4    2    3 ar
   5    2    9 1
   6    3    4 ar
   7    3   31 1
   8    4    5 ar
   9    4   32 1
  10    5    6 ar
  11    5   10 1
  12    6   33 1
  13    7    8 1
  14    8   34 1
  15    8   35 1
  16    8   36 1
  17    9   37 1
  18   10   11 1
  19   10   15 1
  20   10   38 1
  21   11   12 2
  22   11   17 1
  23   12   13 1
  24   12   19 1
  25   13   14 am
  26   13   39 1
  27   14   15 1
  28   14   16 2
  29   15   40 1
  30   15   41 1
  31   17   18 3
  32   19   20 1
  33   20   21 1
  34   20   42 1
  35   20   43 1
  36   21   22 2
  37   21   23 am
  38   23   24 1
  39   23   44 1
  40   24   25 ar
  41   24   29 ar
  42   25   26 ar
  43   25   45 1
  44   26   27 ar
  45   26   46 1
  46   27   28 ar
  47   27   30 1
  48   28   29 ar
  49   28   47 1
  50   29   48 1

#	End of record

