#	Name: ASD01913929
#	Creating user name:	WinNT
#	Creation time:	15. 06. 2019 20:02

#	Modifying user name:	WinNT
#	Modification time:	15. 06. 2019 20:02

#	Program:	/corina/corina34_cracker 3.40 0067  02.08.2006

@<TRIPOS>MOLECULE
ASD01913929
  41   43    0    0    0
SMALL
NO_CHARGES


@<TRIPOS>ATOM
   1 C1            -0.0173     1.4278     0.0099 C.ar    
   2 C2             0.0021    -0.0041     0.0020 C.1     
   3 C3             0.0180    -1.1779    -0.0044 C.1     
   4 C4             0.0374    -2.6098    -0.0123 C.ar    
   5 C5            -1.1657    -3.3304    -0.0047 C.ar    
   6 C6             0.1700    -5.3026    -0.0279 C.ar    
   7 N7             1.2564    -4.5437    -0.0400 N.ar    
   8 N8             1.1960    -3.2616    -0.0324 N.ar    
   9 C9            -1.0939    -4.7113    -0.0128 C.ar    
  10 C10            1.1542     3.5263     0.0099 C.ar    
  11 C11           -1.2352     2.1133     0.0310 C.ar    
  12 C12           -0.0566     4.1980     0.0251 C.ar    
  13 N13            0.2897    -6.6909    -0.0371 N.am    
  14 C14            1.1810     2.1460     0.0023 C.ar    
  15 C15           -1.2468     3.4923     0.0385 C.ar    
  16 C16           -0.7285    -7.5571    -0.1222 C.2     
  17 N17           -0.3505    -8.8421    -0.1112 N.am    
  18 C18            1.1145    -8.9139    -0.0056 C.3     
  19 C19            1.5542    -7.4376     0.0389 C.3     
  20 C20            1.5255    -9.6410     1.2764 C.3     
  21 C21            1.7080    -9.6089    -1.2326 C.3     
  22 C22           -1.2532    -9.9932    -0.1916 C.3     
  23 O23           -1.8905    -7.2086    -0.2019 O.2     
  24 Cl24           2.6414     4.4216    -0.0074 Cl      
  25 H25           -2.1187    -2.8226     0.0074 H       
  26 H26           -1.9897    -5.3145    -0.0071 H       
  27 H27           -2.1651     1.5643     0.0412 H       
  28 H28           -0.0720     5.2779     0.0268 H       
  29 H29            2.1257     1.6228    -0.0091 H       
  30 H30           -2.1874     4.0228     0.0502 H       
  31 H31            2.1951    -7.2035    -0.8111 H       
  32 H32            2.0654    -7.2188     0.9764 H       
  33 H33            1.1435   -10.6617     1.2536 H       
  34 H34            2.6128    -9.6615     1.3497 H       
  35 H35            1.1129    -9.1179     2.1390 H       
  36 H36            1.4236    -9.0631    -2.1323 H       
  37 H37            2.7945    -9.6295    -1.1484 H       
  38 H38            1.3286   -10.6290    -1.2914 H       
  39 H39           -2.2830    -9.6431    -0.2624 H       
  40 H40           -1.0093   -10.5853    -1.0736 H       
  41 H41           -1.1390   -10.6076     0.7015 H       
@<TRIPOS>BOND
   1    1    2 1
   2    1   14 ar
   3    1   11 ar
   4    2    3 3
   5    3    4 1
   6    4    5 ar
   7    4    8 ar
   8    5    9 ar
   9    5   25 1
  10    6    7 ar
  11    6   13 1
  12    6    9 ar
  13    7    8 ar
  14    9   26 1
  15   10   12 ar
  16   10   24 1
  17   10   14 ar
  18   11   15 ar
  19   11   27 1
  20   12   15 ar
  21   12   28 1
  22   13   16 am
  23   13   19 1
  24   14   29 1
  25   15   30 1
  26   16   17 am
  27   16   23 2
  28   17   18 1
  29   17   22 1
  30   18   19 1
  31   18   20 1
  32   18   21 1
  33   19   31 1
  34   19   32 1
  35   20   33 1
  36   20   34 1
  37   20   35 1
  38   21   36 1
  39   21   37 1
  40   21   38 1
  41   22   39 1
  42   22   40 1
  43   22   41 1

#	End of record

