#	Name: ASD02039280
#	Creating user name:	WinNT
#	Creation time:	15. 06. 2019 20:18

#	Modifying user name:	WinNT
#	Modification time:	15. 06. 2019 20:18

#	Program:	/corina/corina34_cracker 3.40 0067  02.08.2006

@<TRIPOS>MOLECULE
ASD02039280
  47   49    0    0    0
SMALL
NO_CHARGES


@<TRIPOS>ATOM
   1 C1             0.1360     1.1852    -0.3160 C.ar    
   2 C2             0.5180    -0.0928     0.0505 C.ar    
   3 C3            -0.3858    -1.1372    -0.0176 C.ar    
   4 C4            -1.6780    -0.9084    -0.4527 C.ar    
   5 C5            -2.0680     0.3797    -0.8231 C.ar    
   6 C6            -1.1528     1.4274    -0.7466 C.ar    
   7 C7            -3.4526     0.6330    -1.2908 C.ar    
   8 C8            -4.0305    -0.1601    -2.2863 C.ar    
   9 C9            -5.3212     0.1101    -2.6921 C.ar    
  10 N10           -6.0069     1.1004    -2.1538 N.ar    
  11 C11           -5.4987     1.8723    -1.2122 C.ar    
  12 C12           -4.2171     1.6678    -0.7441 C.ar    
  13 C13            1.1278     2.3172    -0.2390 C.3     
  14 N14            1.9438     2.3350    -1.4556 N.am    
  15 C15            1.4501     3.0090    -2.6590 C.3     
  16 C16            3.1488     1.7313    -1.4676 C.2     
  17 C17            3.6006     0.9650    -0.2933 C.2     
  18 C18            4.7335     0.2096    -0.2105 C.2     
  19 C19            2.4329     4.1082    -3.0674 C.3     
  20 N20            2.9684     0.8867     0.9055 N.2     
  21 C21            3.6613     0.1205     1.6976 C.2     
  22 N22            4.7642    -0.3173     1.0362 N.pl3   
  23 O23            3.8632     1.8192    -2.4480 O.2     
  24 C24            5.8004    -1.2017     1.5751 C.3     
  25 F25           -2.5608    -1.9289    -0.5196 F       
  26 C26            1.3201     1.9930    -3.7955 C.3     
  27 H27            1.5265    -0.2757     0.3909 H       
  28 H28           -0.0817    -2.1330     0.2691 H       
  29 H29           -1.4490     2.4261    -1.0318 H       
  30 H30           -3.4748    -0.9721    -2.7315 H       
  31 H31           -5.7761    -0.4969    -3.4608 H       
  32 H32           -6.0954     2.6722    -0.7993 H       
  33 H33           -3.8075     2.3032     0.0272 H       
  34 H34            0.5935     3.2627    -0.1460 H       
  35 H35            1.7723     2.1771     0.6288 H       
  36 H36            0.4752     3.4512    -2.4536 H       
  37 H37            5.4657     0.0602    -0.9903 H       
  38 H38            3.4236     3.6759    -3.2079 H       
  39 H39            2.1003     4.5649    -3.9995 H       
  40 H40            2.4750     4.8667    -2.2858 H       
  41 H41            3.4027    -0.1249     2.7170 H       
  42 H42            5.5323    -2.2392     1.3756 H       
  43 H43            6.7547    -0.9751     1.0997 H       
  44 H44            5.8851    -1.0487     2.6510 H       
  45 H45            0.5859     1.2348    -3.5229 H       
  46 H46            0.9964     2.5025    -4.7031 H       
  47 H47            2.2854     1.5178    -3.9702 H       
@<TRIPOS>BOND
   1    1    2 ar
   2    1   13 1
   3    1    6 ar
   4    2    3 ar
   5    2   27 1
   6    3    4 ar
   7    3   28 1
   8    4    5 ar
   9    4   25 1
  10    5    6 ar
  11    5    7 1
  12    6   29 1
  13    7    8 ar
  14    7   12 ar
  15    8    9 ar
  16    8   30 1
  17    9   10 ar
  18    9   31 1
  19   10   11 ar
  20   11   12 ar
  21   11   32 1
  22   12   33 1
  23   13   14 1
  24   13   34 1
  25   13   35 1
  26   14   15 1
  27   14   16 am
  28   15   26 1
  29   15   19 1
  30   15   36 1
  31   16   17 1
  32   16   23 2
  33   17   18 2
  34   17   20 1
  35   18   22 1
  36   18   37 1
  37   19   38 1
  38   19   39 1
  39   19   40 1
  40   20   21 2
  41   21   22 1
  42   21   41 1
  43   22   24 1
  44   24   42 1
  45   24   43 1
  46   24   44 1
  47   26   45 1
  48   26   46 1
  49   26   47 1

#	End of record

