#	Name: ASD01881794
#	Creating user name:	WinNT
#	Creation time:	15. 06. 2019 19:43

#	Modifying user name:	WinNT
#	Modification time:	15. 06. 2019 19:43

#	Program:	/corina/corina34_cracker 3.40 0067  02.08.2006

@<TRIPOS>MOLECULE
ASD01881794
  45   49    0    0    0
SMALL
NO_CHARGES


@<TRIPOS>ATOM
   1 N1            -0.0154     1.2839     0.0091 N.pl3   
   2 N2             0.0021    -0.0041     0.0020 N.2     
   3 N3             1.2033    -0.4649    -0.0119 N.2     
   4 C4             2.0741     0.5645    -0.0147 C.ar    
   5 C5             1.2843     1.7298    -0.0009 C.ar    
   6 C6             3.4670     0.6759    -0.0271 C.ar    
   7 C7             4.0484     1.9285    -0.0255 C.ar    
   8 C8             3.2560     3.0739    -0.0118 C.ar    
   9 C9             1.8924     2.9784    -0.0004 C.ar    
  10 O10            5.4033     2.0444    -0.0370 O.3     
  11 C11            5.9411     3.3683    -0.0346 C.3     
  12 C12            7.4465     3.2990    -0.0485 C.ar    
  13 C13            8.1250     3.2737    -1.2531 C.ar    
  14 C14            9.5046     3.2102    -1.2690 C.ar    
  15 C15           10.2102     3.1722    -0.0739 C.ar    
  16 C16            9.5262     3.1981     1.1340 C.ar    
  17 C17            8.1467     3.2666     1.1435 C.ar    
  18 N18           11.6104     3.1072    -0.0868 N.pl3   
  19 N19           12.4239     3.0749    -1.2268 N.2     
  20 C20           13.6719     3.0156    -0.8374 C.2     
  21 C21           13.6945     3.0081     0.5616 C.2     
  22 C22           12.4155     3.0705     0.9992 C.2     
  23 C23           -1.2133     2.1272     0.0196 C.3     
  24 C24           -1.6228     2.4135     1.4657 C.3     
  25 C25           -2.7884     3.3784     1.6921 C.3     
  26 C26           -2.9777     1.8797     1.9352 C.3     
  27 Br27           4.5472    -0.8761    -0.0451 Br      
  28 H28            3.7236     4.0474    -0.0103 H       
  29 H29            1.2882     3.8735     0.0099 H       
  30 H30            5.5939     3.9031    -0.9187 H       
  31 H31            5.6098     3.8935     0.8612 H       
  32 H32            7.5756     3.3033    -2.1824 H       
  33 H33           10.0340     3.1898    -2.2101 H       
  34 H34           10.0723     3.1687     2.0653 H       
  35 H35            7.6142     3.2906     2.0828 H       
  36 H36           14.5358     2.9782    -1.4846 H       
  37 H37           14.5770     2.9645     1.1825 H       
  38 H38           12.0951     3.0859     2.0304 H       
  39 H39           -1.0007     3.0667    -0.4906 H       
  40 H40           -2.0254     1.6113    -0.4926 H       
  41 H41           -0.8089     2.4286     2.1906 H       
  42 H42           -2.7415     4.0280     2.5661 H       
  43 H43           -3.2635     3.8093     0.8108 H       
  44 H44           -3.5773     1.3246     1.2137 H       
  45 H45           -3.0553     1.5434     2.9691 H       
@<TRIPOS>BOND
   1    1    2 1
   2    1    5 1
   3    1   23 1
   4    2    3 2
   5    3    4 1
   6    4    5 ar
   7    4    6 ar
   8    5    9 ar
   9    6    7 ar
  10    6   27 1
  11    7    8 ar
  12    7   10 1
  13    8    9 ar
  14    8   28 1
  15    9   29 1
  16   10   11 1
  17   11   12 1
  18   11   30 1
  19   11   31 1
  20   12   13 ar
  21   12   17 ar
  22   13   14 ar
  23   13   32 1
  24   14   15 ar
  25   14   33 1
  26   15   16 ar
  27   15   18 1
  28   16   17 ar
  29   16   34 1
  30   17   35 1
  31   18   19 1
  32   18   22 1
  33   19   20 2
  34   20   21 1
  35   20   36 1
  36   21   22 2
  37   21   37 1
  38   22   38 1
  39   23   24 1
  40   23   39 1
  41   23   40 1
  42   24   25 1
  43   24   26 1
  44   24   41 1
  45   25   26 1
  46   25   42 1
  47   25   43 1
  48   26   44 1
  49   26   45 1

#	End of record

