#	Name: ASD01209275
#	Creating user name:	WinNT
#	Creation time:	15. 06. 2019 19:11

#	Modifying user name:	WinNT
#	Modification time:	15. 06. 2019 19:11

#	Program:	/corina/corina34_cracker 3.40 0067  02.08.2006

@<TRIPOS>MOLECULE
ASD01209275
  65   67    0    0    0
SMALL
NO_CHARGES


@<TRIPOS>ATOM
   1 C1            -0.0929     1.4883     0.4483 C.3     
   2 C2            -0.3879     0.0876     0.9194 C.ar    
   3 C3            -1.0769    -0.7867     0.0997 C.ar    
   4 C4            -1.3475    -2.0715     0.5318 C.ar    
   5 C5            -0.9287    -2.4824     1.7835 C.ar    
   6 C6            -0.2388    -1.6084     2.6028 C.ar    
   7 C7             0.0355    -0.3249     2.1690 C.ar    
   8 S8            -1.2746    -4.1198     2.3348 S.o2    
   9 O9            -1.2934    -4.0158     3.7518 O.2     
  10 O10           -2.4394    -4.4941     1.6121 O.2     
  11 C11            0.1547    -5.0932     1.7870 C.3     
  12 C12            1.3980     1.7065     0.4235 C.2     
  13 O13            2.1422     0.8596     0.8703 O.2     
  14 N14            1.9042     2.8427    -0.0953 N.am    
  15 C15            3.2795     3.0694    -0.0677 C.ar    
  16 C16            7.4151     3.6968     0.0198 C.3     
  17 P17            8.0790     3.6088    -1.6757 P.3     
  18 O18            7.3419     4.5540    -2.5439 O.2     
  19 C19            9.8474     4.0514    -1.6596 C.3     
  20 O20            7.9055     2.1121    -2.2430 O.3     
  21 C21            8.2344     1.7452    -3.5844 C.3     
  22 C22            7.9508     0.2558    -3.7899 C.3     
  23 C23           -0.7398     2.4942     1.4026 C.3     
  24 C24           -2.2606     2.3319     1.3605 C.3     
  25 C25           -2.9152     3.2182     2.4346 C.3     
  26 C26           -3.8353     4.2070     1.6893 C.3     
  27 C27           -4.1512     3.4961     0.3499 C.3     
  28 C28           -2.8058     2.8130    -0.0001 C.3     
  29 C29            4.1596     2.0017     0.0825 C.ar    
  30 N30            5.4610     2.2202     0.1077 N.ar    
  31 C31            5.9285     3.4514    -0.0095 C.ar    
  32 C32            5.0570     4.5143    -0.1583 C.ar    
  33 N33            3.7526     4.3024    -0.1899 N.ar    
  34 H34           -0.4972     1.6271    -0.5544 H       
  35 H35           -1.4041    -0.4657    -0.8783 H       
  36 H36           -1.8864    -2.7543    -0.1083 H       
  37 H37            0.0881    -1.9293     3.5809 H       
  38 H38            0.5745     0.3578     2.8091 H       
  39 H39            1.0617    -4.6941     2.2410 H       
  40 H40            0.0240    -6.1323     2.0892 H       
  41 H41            0.2373    -5.0382     0.7015 H       
  42 H42            1.3117     3.5028    -0.4878 H       
  43 H43            7.8964     2.9391     0.6382 H       
  44 H44            7.6122     4.6846     0.4363 H       
  45 H45           10.3904     3.3553    -1.0203 H       
  46 H46           10.2444     3.9988    -2.6734 H       
  47 H47            9.9649     5.0647    -1.2755 H       
  48 H48            7.6308     2.3292    -4.2792 H       
  49 H49            9.2909     1.9424    -3.7664 H       
  50 H50            8.5544    -0.3282    -3.0951 H       
  51 H51            6.8944     0.0586    -3.6079 H       
  52 H52            8.2017    -0.0240    -4.8130 H       
  53 H53           -0.3831     2.3139     2.4167 H       
  54 H54           -0.4738     3.5065     1.0985 H       
  55 H55           -2.5291     1.2882     1.5232 H       
  56 H56           -3.5021     2.6047     3.1181 H       
  57 H57           -2.1494     3.7639     2.9859 H       
  58 H58           -4.7508     4.3773     2.2559 H       
  59 H59           -3.3167     5.1485     1.5084 H       
  60 H60           -4.9382     2.7538     0.4828 H       
  61 H61           -4.4274     4.2206    -0.4162 H       
  62 H62           -2.1209     3.5294    -0.4538 H       
  63 H63           -2.9699     1.9661    -0.6663 H       
  64 H64            3.7782     0.9959     0.1785 H       
  65 H65            5.4426     5.5187    -0.2530 H       
@<TRIPOS>BOND
   1    1    2 1
   2    1   12 1
   3    1   23 1
   4    1   34 1
   5    2    3 ar
   6    2    7 ar
   7    3    4 ar
   8    3   35 1
   9    4    5 ar
  10    4   36 1
  11    5    6 ar
  12    5    8 1
  13    6    7 ar
  14    6   37 1
  15    7   38 1
  16    8    9 2
  17    8   10 2
  18    8   11 1
  19   11   39 1
  20   11   40 1
  21   11   41 1
  22   12   13 2
  23   12   14 am
  24   14   15 1
  25   14   42 1
  26   15   29 ar
  27   15   33 ar
  28   16   17 1
  29   16   31 1
  30   16   43 1
  31   16   44 1
  32   17   18 2
  33   17   19 1
  34   17   20 1
  35   19   45 1
  36   19   46 1
  37   19   47 1
  38   20   21 1
  39   21   22 1
  40   21   48 1
  41   21   49 1
  42   22   50 1
  43   22   51 1
  44   22   52 1
  45   23   24 1
  46   23   53 1
  47   23   54 1
  48   24   25 1
  49   24   28 1
  50   24   55 1
  51   25   26 1
  52   25   56 1
  53   25   57 1
  54   26   27 1
  55   26   58 1
  56   26   59 1
  57   27   28 1
  58   27   60 1
  59   27   61 1
  60   28   62 1
  61   28   63 1
  62   29   30 ar
  63   29   64 1
  64   30   31 ar
  65   31   32 ar
  66   32   33 ar
  67   32   65 1

#	End of record

