#	Name: ASD01200069
#	Creating user name:	WinNT
#	Creation time:	15. 06. 2019 19:08

#	Modifying user name:	WinNT
#	Modification time:	15. 06. 2019 19:08

#	Program:	/corina/corina34_cracker 3.40 0067  02.08.2006

@<TRIPOS>MOLECULE
ASD01200069
  36   38    0    0    0
SMALL
NO_CHARGES


@<TRIPOS>ATOM
   1 C1             4.2657     2.0606    -3.6428 C.2     
   2 C2             4.2672     0.7380    -3.8826 C.2     
   3 N3             4.1235     0.0957    -2.7117 N.2     
   4 C4             4.0316     0.9761    -1.7422 C.2     
   5 N5             4.1163     2.2221    -2.2841 N.pl3   
   6 C6             4.0597     3.4936    -1.5586 C.3     
   7 S7             3.8320     0.6076    -0.0307 S.3     
   8 C8             3.9593    -1.1491    -0.0791 C.ar    
   9 C9             5.2029    -1.7525    -0.2329 C.ar    
  10 C10            5.3016    -3.1308    -0.2707 C.ar    
  11 C11            4.1590    -3.9117    -0.1551 C.ar    
  12 C12            2.9175    -3.3083    -0.0020 C.ar    
  13 C13            2.8187    -1.9315     0.0421 C.ar    
  14 F14            6.3138    -0.9920    -0.3457 F       
  15 N15            4.2586    -5.3071    -0.1934 N.pl3   
  16 C16            1.6782    -4.1566     0.1228 C.3     
  17 N17            1.5643    -4.6557     1.4955 N.pl3   
  18 N18            0.3014    -5.9574     3.0360 N.2     
  19 C19            0.4963    -5.4639     1.8526 C.2     
  20 S20           -0.7558    -5.9554     0.7974 S.3     
  21 C21           -1.5180    -6.8578     2.1044 C.2     
  22 C22           -0.7724    -6.7096     3.1997 C.2     
  23 H23            4.3671     2.8468    -4.3762 H       
  24 H24            4.3670     0.2714    -4.8515 H       
  25 H25            5.0668     3.7892    -1.2644 H       
  26 H26            3.6294     4.2605    -2.2026 H       
  27 H27            3.4408     3.3770    -0.6689 H       
  28 H28            6.2668    -3.6002    -0.3904 H       
  29 H29            1.8529    -1.4632     0.1615 H       
  30 H30            5.1256    -5.7287    -0.3006 H       
  31 H31            3.4607    -5.8527    -0.1126 H       
  32 H32            0.8012    -3.5564    -0.1195 H       
  33 H33            1.7436    -4.9990    -0.5658 H       
  34 H34            2.2362    -4.4206     2.1543 H       
  35 H35           -2.4303    -7.4311     2.0311 H       
  36 H36           -1.0256    -7.1677     4.1444 H       
@<TRIPOS>BOND
   1    1    2 2
   2    1    5 1
   3    1   23 1
   4    2    3 1
   5    2   24 1
   6    3    4 2
   7    4    5 1
   8    4    7 1
   9    5    6 1
  10    6   25 1
  11    6   26 1
  12    6   27 1
  13    7    8 1
  14    8    9 ar
  15    8   13 ar
  16    9   10 ar
  17    9   14 1
  18   10   11 ar
  19   10   28 1
  20   11   12 ar
  21   11   15 1
  22   12   13 ar
  23   12   16 1
  24   13   29 1
  25   15   30 1
  26   15   31 1
  27   16   17 1
  28   16   32 1
  29   16   33 1
  30   17   19 1
  31   17   34 1
  32   18   19 2
  33   18   22 1
  34   19   20 1
  35   20   21 1
  36   21   22 2
  37   21   35 1
  38   22   36 1

#	End of record

