#	Name: ASD02030211
#	Creating user name:	WinNT
#	Creation time:	15. 06. 2019 20:14

#	Modifying user name:	WinNT
#	Modification time:	15. 06. 2019 20:14

#	Program:	/corina/corina34_cracker 3.40 0067  02.08.2006

@<TRIPOS>MOLECULE
ASD02030211
  60   64    0    0    0
SMALL
NO_CHARGES


@<TRIPOS>ATOM
   1 N1            -0.1708     1.5266    -0.8292 N.am    
   2 C2            -0.1499     0.0595    -0.7444 C.3     
   3 C3            -0.9141    -0.3695     0.5142 C.3     
   4 N4            -2.2103     0.3228     0.5354 N.am    
   5 C5            -2.2312     1.7898     0.4506 C.3     
   6 C6            -1.4667     2.2192    -0.8024 C.3     
   7 C7             0.9782     2.2246    -0.9243 C.2     
   8 C8             2.2786     1.5291    -0.8030 C.2     
   9 N9             2.4757     0.2035    -0.7310 N.2     
  10 N10            3.4722     2.0911    -0.7501 N.2     
  11 N11            4.3462     1.1498    -0.6455 N.pl3   
  12 N12            3.7473     0.0105    -0.6338 N.2     
  13 C13            6.2646     2.6199    -0.5901 C.ar    
  14 O14            0.9462     3.4254    -1.1096 O.2     
  15 C15           -3.3593    -0.3752     0.6305 C.2     
  16 C16           -3.3297    -1.8541     0.6157 C.ar    
  17 O17           -4.4199     0.2104     0.7283 O.2     
  18 C18            7.6311     2.8021    -0.5083 C.ar    
  19 C19            8.4707     1.7089    -0.3985 C.ar    
  20 C20            7.9447     0.4293    -0.3708 C.ar    
  21 C21            6.5774     0.2411    -0.4519 C.ar    
  22 C22            5.7331     1.3373    -0.5621 C.ar    
  23 C23           -1.2415     3.7323    -0.7732 C.3     
  24 C24           -2.2691     1.8400    -2.0487 C.3     
  25 N25           -2.2253    -2.4892     1.0206 N.ar    
  26 C26           -2.1276    -3.7993     1.0344 C.ar    
  27 C27           -3.2157    -4.5958     0.6105 C.ar    
  28 C28           -4.4031    -3.9540     0.1746 C.ar    
  29 C29           -4.4469    -2.5478     0.1888 C.ar    
  30 C30           -3.1515    -5.9947     0.6096 C.ar    
  31 C31           -4.2289    -6.7179     0.1907 C.ar    
  32 C32           -5.3945    -6.0879    -0.2377 C.ar    
  33 C33           -5.4927    -4.7284    -0.2493 C.ar    
  34 O34           -0.9819    -4.3878     1.4551 O.3     
  35 C35            0.0777    -3.5229     1.8689 C.3     
  36 Cl36           9.0022    -0.9406    -0.2340 Cl      
  37 H37           -0.6299    -0.3648    -1.6262 H       
  38 H38            0.8812    -0.2887    -0.6828 H       
  39 H39           -1.0753    -1.4473     0.4947 H       
  40 H40           -0.3404    -0.0989     1.4006 H       
  41 H41           -3.2623     2.1381     0.3890 H       
  42 H42           -1.7512     2.2141     1.3324 H       
  43 H43            5.6094     3.4747    -0.6714 H       
  44 H44            8.0445     3.7996    -0.5305 H       
  45 H45            9.5390     1.8540    -0.3347 H       
  46 H46            6.1669    -0.7576    -0.4302 H       
  47 H47           -0.4398     3.9668    -0.0729 H       
  48 H48           -0.9662     4.0779    -1.7696 H       
  49 H49           -2.1579     4.2300    -0.4563 H       
  50 H50           -3.2363     2.3421    -2.0248 H       
  51 H51           -1.7223     2.1470    -2.9402 H       
  52 H52           -2.4204     0.7607    -2.0689 H       
  53 H53           -5.3321    -2.0209    -0.1351 H       
  54 H54           -2.2540    -6.4977     0.9383 H       
  55 H55           -4.1773    -7.7967     0.1907 H       
  56 H56           -6.2330    -6.6850    -0.5647 H       
  57 H57           -6.4019    -4.2512    -0.5842 H       
  58 H58            0.9340    -4.1209     2.1806 H       
  59 H59            0.3670    -2.8795     1.0380 H       
  60 H60           -0.2597    -2.9087     2.7038 H       
@<TRIPOS>BOND
   1    1    2 1
   2    1    7 am
   3    1    6 1
   4    2    3 1
   5    2   37 1
   6    2   38 1
   7    3    4 1
   8    3   39 1
   9    3   40 1
  10    4    5 1
  11    4   15 am
  12    5    6 1
  13    5   41 1
  14    5   42 1
  15    6   23 1
  16    6   24 1
  17    7    8 1
  18    7   14 2
  19    8    9 1
  20    8   10 2
  21    9   12 2
  22   10   11 1
  23   11   12 1
  24   11   22 1
  25   13   18 ar
  26   13   22 ar
  27   13   43 1
  28   15   16 1
  29   15   17 2
  30   16   25 ar
  31   16   29 ar
  32   18   19 ar
  33   18   44 1
  34   19   20 ar
  35   19   45 1
  36   20   21 ar
  37   20   36 1
  38   21   22 ar
  39   21   46 1
  40   23   47 1
  41   23   48 1
  42   23   49 1
  43   24   50 1
  44   24   51 1
  45   24   52 1
  46   25   26 ar
  47   26   27 ar
  48   26   34 1
  49   27   28 ar
  50   27   30 ar
  51   28   29 ar
  52   28   33 ar
  53   29   53 1
  54   30   31 ar
  55   30   54 1
  56   31   32 ar
  57   31   55 1
  58   32   33 ar
  59   32   56 1
  60   33   57 1
  61   34   35 1
  62   35   58 1
  63   35   59 1
  64   35   60 1

#	End of record

