#	Name: ASD02560050
#	Creating user name:	WinNT
#	Creation time:	15. 06. 2019 20:24

#	Modifying user name:	WinNT
#	Modification time:	15. 06. 2019 20:24

#	Program:	/corina/corina34_cracker 3.40 0067  02.08.2006

@<TRIPOS>MOLECULE
ASD02560050
  42   43    0    0    0
SMALL
NO_CHARGES


@<TRIPOS>ATOM
   1 C1             0.0489     1.2934     0.4796 C.ar    
   2 C2             0.0073    -0.0130     0.0067 C.ar    
   3 C3             1.1618    -0.6161    -0.4678 C.ar    
   4 C4             2.3636     0.0923    -0.4689 C.ar    
   5 C5             2.3952     1.4055     0.0086 C.ar    
   6 C6             1.2390     1.9964     0.4792 C.ar    
   7 C7             3.5974    -0.5429    -0.9721 C.2     
   8 N8             4.7104     0.1161    -0.9720 N.2     
   9 O9             5.8940    -0.4932    -1.4548 O.3     
  10 C10            7.0469     0.3490    -1.3959 C.3     
  11 C11            7.3081     0.7554     0.0559 C.3     
  12 Cl12           3.8870     2.2933     0.0104 Cl      
  13 N13           -1.1999    -0.7196     0.0102 N.am    
  14 C14           -1.5372    -1.4824    -1.0485 C.2     
  15 C15           -2.7462    -2.3211    -0.9961 C.2     
  16 S16           -0.5598    -1.4764    -2.4541 S.2     
  17 C17           -3.6932    -2.4466     0.1216 C.2     
  18 C18           -4.6302    -3.3170    -0.2844 C.2     
  19 O19           -4.3415    -3.7251    -1.5299 O.3     
  20 C20           -3.2253    -3.1398    -1.9771 C.2     
  21 C21           -2.5977    -3.3556    -3.3301 C.3     
  22 C22            8.2601    -0.4083    -1.9396 C.3     
  23 C23            6.8071     1.6018    -2.2408 C.3     
  24 H24           -0.8529     1.7624     0.8446 H       
  25 H25            1.1310    -1.6312    -0.8352 H       
  26 H26            1.2647     3.0113     0.8476 H       
  27 H27            3.5708    -1.5578    -1.3404 H       
  28 H28            7.4789    -0.1371     0.6579 H       
  29 H29            8.1875     1.3978     0.1008 H       
  30 H30            6.4438     1.2949     0.4433 H       
  31 H31           -1.7942    -0.6605     0.7744 H       
  32 H32           -3.6443    -1.9416     1.0750 H       
  33 H33           -5.4809    -3.6382     0.2982 H       
  34 H34           -3.1950    -4.0688    -3.8981 H       
  35 H35           -2.5561    -2.4077    -3.8667 H       
  36 H36           -1.5879    -3.7463    -3.2040 H       
  37 H37            8.0740    -0.6978    -2.9738 H       
  38 H38            9.1395     0.2341    -1.8947 H       
  39 H39            8.4309    -1.3008    -1.3376 H       
  40 H40            5.9429     2.1414    -1.8535 H       
  41 H41            7.6865     2.2442    -2.1959 H       
  42 H42            6.6211     1.3123    -3.2751 H       
@<TRIPOS>BOND
   1    1    2 ar
   2    1    6 ar
   3    1   24 1
   4    2    3 ar
   5    2   13 1
   6    3    4 ar
   7    3   25 1
   8    4    5 ar
   9    4    7 1
  10    5    6 ar
  11    5   12 1
  12    6   26 1
  13    7    8 2
  14    7   27 1
  15    8    9 1
  16    9   10 1
  17   10   11 1
  18   10   22 1
  19   10   23 1
  20   11   28 1
  21   11   29 1
  22   11   30 1
  23   13   14 am
  24   13   31 1
  25   14   15 1
  26   14   16 2
  27   15   17 1
  28   15   20 2
  29   17   18 2
  30   17   32 1
  31   18   19 1
  32   18   33 1
  33   19   20 1
  34   20   21 1
  35   21   34 1
  36   21   35 1
  37   21   36 1
  38   22   37 1
  39   22   38 1
  40   22   39 1
  41   23   40 1
  42   23   41 1
  43   23   42 1

#	End of record

