#	Name: ASD02198303
#	Creating user name:	WinNT
#	Creation time:	15. 06. 2019 20:19

#	Modifying user name:	WinNT
#	Modification time:	15. 06. 2019 20:19

#	Program:	/corina/corina34_cracker 3.40 0067  02.08.2006

@<TRIPOS>MOLECULE
ASD02198303
  34   36    0    0    0
SMALL
NO_CHARGES


@<TRIPOS>ATOM
   1 C1             1.8304     1.1538    -2.7543 C.2     
   2 C2             1.3501    -0.1363    -2.8898 C.2     
   3 S3             2.2010     1.4107    -1.0513 S.3     
   4 C4             1.6966    -0.1799    -0.6843 C.2     
   5 N5             1.3002    -0.7997    -1.7587 N.2     
   6 N6             0.9587    -0.6765    -4.1041 N.pl3   
   7 C7             1.9983     2.0903    -3.7911 C.2     
   8 C8             1.8688     3.5376    -3.5091 C.ar    
   9 O9             2.2506     1.7096    -4.9216 O.2     
  10 N10            1.7076    -0.7318     0.5772 N.pl3   
  11 C11            1.3854    -2.0818     0.7529 C.ar    
  12 C12            2.3888    -3.0433     0.7515 C.ar    
  13 C13            2.1658     4.4738    -4.5003 C.ar    
  14 C14            1.4435     3.9714    -2.2530 C.ar    
  15 C15            1.3243     5.3217    -1.9967 C.ar    
  16 C16            1.6250     6.2451    -2.9822 C.ar    
  17 C17            2.0426     5.8213    -4.2313 C.ar    
  18 C18            2.0666    -4.3762     0.9254 C.ar    
  19 C19            0.7478    -4.7533     1.1006 C.ar    
  20 C20           -0.2533    -3.7994     1.1025 C.ar    
  21 C21            0.0618    -2.4641     0.9350 C.ar    
  22 Cl22           4.0447    -2.5711     0.5311 Cl      
  23 Cl23          -1.1958    -1.2673     0.9383 Cl      
  24 H24            1.0148    -0.1436    -4.9127 H       
  25 H25            0.6284    -1.5876    -4.1457 H       
  26 H26            1.9388    -0.1845     1.3440 H       
  27 H27            2.4919     4.1442    -5.4757 H       
  28 H28            1.2078     3.2515    -1.4831 H       
  29 H29            0.9952     5.6588    -1.0248 H       
  30 H30            1.5294     7.3011    -2.7768 H       
  31 H31            2.2761     6.5471    -4.9963 H       
  32 H32            2.8458    -5.1240     0.9240 H       
  33 H33            0.4990    -5.7956     1.2358 H       
  34 H34           -1.2823    -4.0977     1.2393 H       
@<TRIPOS>BOND
   1    1    2 2
   2    1    3 1
   3    1    7 1
   4    2    6 1
   5    2    5 1
   6    3    4 1
   7    4    5 2
   8    4   10 1
   9    6   24 1
  10    6   25 1
  11    7    8 1
  12    7    9 2
  13    8   13 ar
  14    8   14 ar
  15   10   11 1
  16   10   26 1
  17   11   12 ar
  18   11   21 ar
  19   12   18 ar
  20   12   22 1
  21   13   17 ar
  22   13   27 1
  23   14   15 ar
  24   14   28 1
  25   15   16 ar
  26   15   29 1
  27   16   17 ar
  28   16   30 1
  29   17   31 1
  30   18   19 ar
  31   18   32 1
  32   19   20 ar
  33   19   33 1
  34   20   21 ar
  35   20   34 1
  36   21   23 1

#	End of record

