#	Name: ASD00311522
#	Creating user name:	WinNT
#	Creation time:	15. 06. 2019 18:35

#	Modifying user name:	WinNT
#	Modification time:	15. 06. 2019 18:35

#	Program:	/corina/corina34_cracker 3.40 0067  02.08.2006

@<TRIPOS>MOLECULE
ASD00311522
  45   49    0    0    0
SMALL
NO_CHARGES


@<TRIPOS>ATOM
   1 C1            -0.0167     1.3777     0.0096 C.2     
   2 C2             0.0021    -0.0041     0.0020 C.2     
   3 C3             1.2588    -0.6767    -0.0136 C.2     
   4 C4             2.4315     0.0672    -0.0208 C.2     
   5 C5             2.3574     1.4752    -0.0126 C.2     
   6 N6             1.1648     2.0903     0.0022 N.am    
   7 C7            -1.3432    -0.5752     0.0123 C.2     
   8 C8            -2.3228     0.3261     0.0268 C.2     
   9 S9            -1.6793     1.9562     0.0358 S.3     
  10 O10            3.3822     2.1373    -0.0188 O.2     
  11 C11            3.7477    -0.6120    -0.0366 C.ar    
  12 C12            4.5934    -0.4746    -1.1371 C.ar    
  13 C13            5.8185    -1.1095    -1.1456 C.ar    
  14 C14            6.2082    -1.8814    -0.0658 C.ar    
  15 C15            5.3737    -2.0216     1.0287 C.ar    
  16 C16            4.1487    -1.3870     1.0515 C.ar    
  17 C17           -2.0083    -4.7297    -0.0698 C.ar    
  18 C18           -2.6761    -3.9721     0.8921 C.ar    
  19 C19           -2.4714    -2.6071     0.9362 C.ar    
  20 C20           -1.5956    -2.0348     0.0062 C.ar    
  21 C21           -0.9640    -2.8575    -0.9268 C.ar    
  22 N22           -1.1844    -4.1546    -0.9369 N.ar    
  23 C23           -2.2170    -6.1966    -0.1208 C.ar    
  24 C24           -1.5553    -6.9647    -1.0777 C.ar    
  25 C25           -1.7531    -8.3298    -1.1200 C.ar    
  26 C26           -2.6061    -8.9362    -0.2154 C.ar    
  27 C27           -3.2655    -8.1791     0.7363 C.ar    
  28 C28           -3.0713    -6.8139     0.7916 C.ar    
  29 O29            1.3087    -2.0292    -0.0209 O.3     
  30 H30            1.1326     3.0597     0.0077 H       
  31 H31           -3.3754     0.0846     0.0354 H       
  32 H32            4.2899     0.1272    -1.9810 H       
  33 H33            6.4742    -1.0039    -1.9972 H       
  34 H34            7.1678    -2.3770    -0.0774 H       
  35 H35            5.6834    -2.6258     1.8686 H       
  36 H36            3.5000    -1.4935     1.9084 H       
  37 H37           -3.3452    -4.4474     1.5941 H       
  38 H38           -2.9755    -1.9958     1.6701 H       
  39 H39           -0.2866    -2.4251    -1.6483 H       
  40 H40           -0.8894    -6.4923    -1.7846 H       
  41 H41           -1.2413    -8.9258    -1.8611 H       
  42 H42           -2.7581   -10.0048    -0.2525 H       
  43 H43           -3.9302    -8.6579     1.4400 H       
  44 H44           -3.5831    -6.2244     1.5379 H       
  45 H45            2.2060    -2.3896    -0.0315 H       
@<TRIPOS>BOND
   1    1    2 2
   2    1    6 1
   3    1    9 1
   4    2    3 1
   5    2    7 1
   6    3    4 2
   7    3   29 1
   8    4    5 1
   9    4   11 1
  10    5    6 am
  11    5   10 2
  12    6   30 1
  13    7    8 2
  14    7   20 1
  15    8    9 1
  16    8   31 1
  17   11   12 ar
  18   11   16 ar
  19   12   13 ar
  20   12   32 1
  21   13   14 ar
  22   13   33 1
  23   14   15 ar
  24   14   34 1
  25   15   16 ar
  26   15   35 1
  27   16   36 1
  28   17   18 ar
  29   17   22 ar
  30   17   23 1
  31   18   19 ar
  32   18   37 1
  33   19   20 ar
  34   19   38 1
  35   20   21 ar
  36   21   22 ar
  37   21   39 1
  38   23   24 ar
  39   23   28 ar
  40   24   25 ar
  41   24   40 1
  42   25   26 ar
  43   25   41 1
  44   26   27 ar
  45   26   42 1
  46   27   28 ar
  47   27   43 1
  48   28   44 1
  49   29   45 1

#	End of record

