#	Name: ASD03620002
#	Creating user name:	WinNT
#	Creation time:	15. 06. 2019 20:43

#	Modifying user name:	WinNT
#	Modification time:	15. 06. 2019 20:43

#	Program:	/corina/corina34_cracker 3.40 0067  02.08.2006

@<TRIPOS>MOLECULE
ASD03620002
  88   91    0    0    0
SMALL
NO_CHARGES


@<TRIPOS>ATOM
   1 C1            -0.7234     1.2467     0.8732 C.ar    
   2 C2            -0.6155    -0.1266     0.7574 C.ar    
   3 C3             0.6316    -0.7181     0.6824 C.ar    
   4 C4             1.7709     0.0637     0.7226 C.ar    
   5 C5             1.6631     1.4371     0.8375 C.ar    
   6 C6             0.4160     2.0285     0.9139 C.ar    
   7 C7             3.1306    -0.5812     0.6418 C.3     
   8 C8             3.5545    -0.6805    -0.8009 C.2     
   9 N9             4.7449    -1.2276    -1.1174 N.am    
  10 O10            2.8244    -0.2683    -1.6772 O.2     
  11 C11            5.1569    -1.3242    -2.5199 C.3     
  12 C12            4.5817    -2.5788    -3.1270 C.2     
  13 N13            5.2913    -3.7166    -3.1201 N.am    
  14 C14            6.7210    -3.8598    -2.7972 C.3     
  15 C15            7.2007    -2.6673    -1.9822 C.3     
  16 C16            6.6831    -1.3688    -2.6003 C.3     
  17 C17            4.7891    -5.0742    -3.3842 C.3     
  18 C18            5.7114    -6.0485    -2.6245 C.3     
  19 C19            6.7754    -5.1502    -1.9487 C.3     
  20 C20            3.3745    -5.2067    -2.8817 C.2     
  21 H21            7.3103    -3.9604    -3.7086 H       
  22 O22            2.8284    -4.2625    -2.3516 O.2     
  23 N23            2.7163    -6.3745    -3.0215 N.am    
  24 C24            1.3412    -6.5033    -2.5330 C.3     
  25 C25            1.0480    -7.9508    -2.2334 C.2     
  26 O26            3.4751    -2.5588    -3.6229 O.2     
  27 C27            0.3707    -5.9970    -3.6020 C.3     
  28 C28            0.5852    -4.4974    -3.8165 C.3     
  29 C29           -0.3853    -3.9911    -4.8854 C.3     
  30 N30           -0.1798    -2.5552    -5.0908 N.am    
  31 C31           -0.9285    -1.8896    -5.9924 C.2     
  32 O32           -1.7744    -2.4807    -6.6353 O.2     
  33 N33           -0.7395    -0.5686    -6.1814 N.am    
  34 O34            1.9035    -8.7921    -2.4105 O.2     
  35 N35           -0.1649    -8.3106    -1.7687 N.am    
  36 C36           -0.4870    -9.7275    -1.5818 C.3     
  37 C37           -0.6866   -10.0129    -0.0920 C.3     
  38 C38            0.6139    -9.8000     0.6390 C.ar    
  39 C39            0.9208    -8.5549     1.1553 C.ar    
  40 C40            2.1137    -8.3596     1.8257 C.ar    
  41 C41            2.9997    -9.4094     1.9803 C.ar    
  42 C42            2.6924   -10.6547     1.4648 C.ar    
  43 C43            1.4975   -10.8511     0.7981 C.ar    
  44 C44           -1.7717   -10.0630    -2.3420 C.3     
  45 C45           -1.5323    -9.9156    -3.8226 C.2     
  46 O46           -0.4212    -9.6796    -4.2344 O.2     
  47 O47           -2.5535   -10.0465    -4.6838 O.3     
  48 H48           -1.6978     1.7092     0.9273 H       
  49 H49           -1.5057    -0.7374     0.7260 H       
  50 H50            0.7159    -1.7910     0.5927 H       
  51 H51            2.5532     2.0478     0.8696 H       
  52 H52            0.3317     3.1014     1.0040 H       
  53 H53            3.8524     0.0226     1.1918 H       
  54 H54            3.0856    -1.5796     1.0769 H       
  55 H55            5.3288    -1.5573    -0.4165 H       
  56 H56            4.7903    -0.4554    -3.0666 H       
  57 H57            6.8305    -2.7548    -0.9608 H       
  58 H58            8.2906    -2.6526    -1.9700 H       
  59 H59            6.9924    -1.3165    -3.6441 H       
  60 H60            7.0987    -0.5193    -2.0583 H       
  61 H61            4.8260    -5.2835    -4.4533 H       
  62 H62            5.1452    -6.5967    -1.8715 H       
  63 H63            6.1865    -6.7403    -3.3200 H       
  64 H64            7.7622    -5.6095    -2.0070 H       
  65 H65            6.5050    -4.9433    -0.9132 H       
  66 H66            3.1531    -7.1297    -3.4455 H       
  67 H67            1.2215    -5.9128    -1.6246 H       
  68 H68            0.5512    -6.5273    -4.5370 H       
  69 H69           -0.6541    -6.1744    -3.2757 H       
  70 H70            0.4047    -3.9671    -2.8814 H       
  71 H71            1.6100    -4.3200    -4.1428 H       
  72 H72           -0.2047    -4.5214    -5.8205 H       
  73 H73           -1.4100    -4.1685    -4.5591 H       
  74 H74            0.4950    -2.0836    -4.5780 H       
  75 H75           -0.0646    -0.0969    -5.6685 H       
  76 H76           -1.2783    -0.0895    -6.8303 H       
  77 H77           -0.8245    -7.6314    -1.5579 H       
  78 H78            0.3308   -10.3393    -1.9626 H       
  79 H79           -1.4434    -9.3387     0.3089 H       
  80 H80           -1.0128   -11.0446     0.0397 H       
  81 H81            0.2286    -7.7347     1.0345 H       
  82 H82            2.3538    -7.3867     2.2285 H       
  83 H83            3.9320    -9.2566     2.5035 H       
  84 H84            3.3847   -11.4748     1.5853 H       
  85 H85            1.2574   -11.8240     0.3953 H       
  86 H86           -2.0666   -11.0890    -2.1220 H       
  87 H87           -2.5651    -9.3826    -2.0327 H       
  88 H88           -2.3510    -9.9434    -5.6238 H       
@<TRIPOS>BOND
   1    1    2 ar
   2    1    6 ar
   3    1   48 1
   4    2    3 ar
   5    2   49 1
   6    3    4 ar
   7    3   50 1
   8    4    5 ar
   9    4    7 1
  10    5    6 ar
  11    5   51 1
  12    6   52 1
  13    7    8 1
  14    7   53 1
  15    7   54 1
  16    8    9 am
  17    8   10 2
  18    9   11 1
  19    9   55 1
  20   11   12 1
  21   11   16 1
  22   11   56 1
  23   12   13 am
  24   12   26 2
  25   13   14 1
  26   13   17 1
  27   14   15 1
  28   14   21 1
  29   14   19 1
  30   15   16 1
  31   15   57 1
  32   15   58 1
  33   16   59 1
  34   16   60 1
  35   17   18 1
  36   17   20 1
  37   17   61 1
  38   18   19 1
  39   18   62 1
  40   18   63 1
  41   19   64 1
  42   19   65 1
  43   20   22 2
  44   20   23 am
  45   23   24 1
  46   23   66 1
  47   24   25 1
  48   24   27 1
  49   24   67 1
  50   25   34 2
  51   25   35 am
  52   27   28 1
  53   27   68 1
  54   27   69 1
  55   28   29 1
  56   28   70 1
  57   28   71 1
  58   29   30 1
  59   29   72 1
  60   29   73 1
  61   30   31 am
  62   30   74 1
  63   31   32 2
  64   31   33 am
  65   33   75 1
  66   33   76 1
  67   35   36 1
  68   35   77 1
  69   36   37 1
  70   36   44 1
  71   36   78 1
  72   37   38 1
  73   37   79 1
  74   37   80 1
  75   38   39 ar
  76   38   43 ar
  77   39   40 ar
  78   39   81 1
  79   40   41 ar
  80   40   82 1
  81   41   42 ar
  82   41   83 1
  83   42   43 ar
  84   42   84 1
  85   43   85 1
  86   44   45 1
  87   44   86 1
  88   44   87 1
  89   45   46 2
  90   45   47 1
  91   47   88 1

#	End of record

