#	Name: ASD00100144
#	Creating user name:	WinNT
#	Creation time:	15. 06. 2019 18:30

#	Modifying user name:	WinNT
#	Modification time:	15. 06. 2019 18:30

#	Program:	/corina/corina34_cracker 3.40 0067  02.08.2006

@<TRIPOS>MOLECULE
ASD00100144
  44   47    0    0    0
SMALL
NO_CHARGES


@<TRIPOS>ATOM
   1 N1             0.2157     1.0419    -0.0291 N.pl3   
   2 C2             0.0415    -0.3311    -0.0082 C.2     
   3 N3             0.9933    -1.2230    -0.1344 N.2     
   4 C4             0.4504    -2.4652    -0.0649 C.2     
   5 C5            -0.8887    -2.3251     0.1111 C.2     
   6 N6            -1.1459    -0.9770     0.1528 N.pl3   
   7 C7             1.1874    -3.7454    -0.1638 C.ar    
   8 C8             0.9477    -4.7627     0.7440 C.ar    
   9 C9             1.6353    -5.9675     0.6571 C.ar    
  10 C10            2.5613    -6.1816    -0.3189 C.ar    
  11 C11            2.8366    -5.1760    -1.2613 C.ar    
  12 C12            3.7883    -5.3716    -2.2774 C.ar    
  13 C13            4.0309    -4.3764    -3.1737 C.ar    
  14 C14            3.3492    -3.1635    -3.0998 C.ar    
  15 C15            2.4211    -2.9397    -2.1282 C.ar    
  16 C16            2.1405    -3.9445    -1.1913 C.ar    
  17 C17           -2.4573    -0.3493     0.3333 C.3     
  18 C18           -3.0499    -0.0274    -1.0143 C.ar    
  19 C19           -3.7050    -1.0133    -1.7382 C.ar    
  20 C20           -4.2494    -0.7139    -2.9784 C.ar    
  21 C21           -4.1382     0.5648    -3.4898 C.ar    
  22 C22           -3.4846     1.5453    -2.7668 C.ar    
  23 C23           -2.9464     1.2508    -1.5274 C.ar    
  24 O24           -3.8126    -2.2704    -1.2332 O.3     
  25 C25           -4.5001    -3.2343    -2.0334 C.3     
  26 H26            1.1083     1.4167    -0.0892 H       
  27 H27           -0.5552     1.6293     0.0122 H       
  28 H28           -1.6122    -3.1215     0.2050 H       
  29 H29            0.2190    -4.6185     1.5280 H       
  30 H30            1.4322    -6.7474     1.3761 H       
  31 H31            3.0847    -7.1250    -0.3684 H       
  32 H32            4.3243    -6.3067    -2.3462 H       
  33 H33            4.7627    -4.5289    -3.9531 H       
  34 H34            3.5599    -2.3897    -3.8231 H       
  35 H35            1.9004    -1.9946    -2.0827 H       
  36 H36           -3.1173    -1.0336     0.8664 H       
  37 H37           -2.3442     0.5692     0.9093 H       
  38 H38           -4.7594    -1.4797    -3.5439 H       
  39 H39           -4.5619     0.7985    -4.4553 H       
  40 H40           -3.3982     2.5440    -3.1686 H       
  41 H41           -2.4405     2.0197    -0.9624 H       
  42 H42           -5.5229    -2.8997    -2.2066 H       
  43 H43           -3.9875    -3.3454    -2.9889 H       
  44 H44           -4.5144    -4.1931    -1.5151 H       
@<TRIPOS>BOND
   1    1    2 1
   2    1   26 1
   3    1   27 1
   4    2    3 2
   5    2    6 1
   6    3    4 1
   7    4    5 2
   8    4    7 1
   9    5    6 1
  10    5   28 1
  11    6   17 1
  12    7    8 ar
  13    7   16 ar
  14    8    9 ar
  15    8   29 1
  16    9   10 ar
  17    9   30 1
  18   10   11 ar
  19   10   31 1
  20   11   12 ar
  21   11   16 ar
  22   12   13 ar
  23   12   32 1
  24   13   14 ar
  25   13   33 1
  26   14   15 ar
  27   14   34 1
  28   15   16 ar
  29   15   35 1
  30   17   18 1
  31   17   36 1
  32   17   37 1
  33   18   19 ar
  34   18   23 ar
  35   19   20 ar
  36   19   24 1
  37   20   21 ar
  38   20   38 1
  39   21   22 ar
  40   21   39 1
  41   22   23 ar
  42   22   40 1
  43   23   41 1
  44   24   25 1
  45   25   42 1
  46   25   43 1
  47   25   44 1

#	End of record

