#	Name: ASD04590885
#	Creating user name:	WinNT
#	Creation time:	15. 06. 2019 20:51

#	Modifying user name:	WinNT
#	Modification time:	15. 06. 2019 20:51

#	Program:	/corina/corina34_cracker 3.40 0067  02.08.2006

@<TRIPOS>MOLECULE
ASD04590885
  55   60    0    0    0
SMALL
NO_CHARGES


@<TRIPOS>ATOM
   1 N1            -0.0170     1.3232    -0.0110 N.ar    
   2 C2             0.0017    -0.0035    -0.0048 C.ar    
   3 N3             1.1298    -0.6949    -0.0122 N.ar    
   4 C4             2.3050    -0.0727    -0.0263 C.ar    
   5 C5             2.3189     1.3367    -0.0332 C.ar    
   6 C6             1.1072     2.0203    -0.0250 C.ar    
   7 N7             3.6029    -0.5189    -0.0364 N.pl3   
   8 C8             4.4817     0.5513    -0.0499 C.ar    
   9 C9             3.7312     1.7389    -0.0485 C.ar    
  10 C10            5.8705     0.6465    -0.0641 C.ar    
  11 N11            6.4581     1.8275    -0.0760 N.ar    
  12 C12            5.7743     2.9590    -0.0750 C.ar    
  13 C13            4.4067     2.9600    -0.0608 C.ar    
  14 N14           -1.2019    -0.6887     0.0103 N.pl3   
  15 C15           -2.4022     0.0122     0.1313 C.ar    
  16 N16           -2.3890     1.3195     0.3318 N.ar    
  17 N17           -3.4682     2.0043     0.4486 N.ar    
  18 C18           -4.6667     1.4484     0.3762 C.ar    
  19 C19           -4.7831     0.0734     0.1663 C.ar    
  20 C20           -3.6195    -0.6637     0.0353 C.ar    
  21 N21           -5.8097     2.2336     0.5095 N.3     
  22 C22            4.0023    -1.9284    -0.0326 C.3     
  23 C23            3.4016    -2.6446     1.1946 C.3     
  24 C24            3.4391    -2.6392    -1.2757 C.3     
  25 C25            2.5157    -3.7626    -0.7605 C.3     
  26 C26            2.1025    -3.2944     0.6570 C.3     
  27 C27           -5.4555     3.6682     0.6595 C.3     
  28 F28            6.6208    -0.4770    -0.0654 F       
  29 C29           -6.6536     2.1512    -0.7024 C.3     
  30 C30           -7.3111     3.5311    -0.8897 C.3     
  31 C31           -6.7637     4.3994     0.2664 C.3     
  32 O32           -6.4853     5.7261    -0.1856 O.3     
  33 H33            1.0848     3.1000    -0.0304 H       
  34 H34            6.3052     3.8994    -0.0848 H       
  35 H35            3.8584     3.8905    -0.0599 H       
  36 H36           -1.2103    -1.6559    -0.0632 H       
  37 H37           -5.7518    -0.4001     0.1045 H       
  38 H38           -3.6521    -1.7307    -0.1288 H       
  39 H39            5.0893    -2.0082    -0.0174 H       
  40 H40            4.0861    -3.4087     1.5633 H       
  41 H41            3.1715    -1.9258     1.9810 H       
  42 H42            2.8685    -1.9355    -1.8818 H       
  43 H43            4.2526    -3.0647    -1.8633 H       
  44 H44            1.6390    -3.8596    -1.4009 H       
  45 H45            3.0571    -4.7071    -0.7076 H       
  46 H46            1.8112    -4.1439     1.2747 H       
  47 H47            1.2978    -2.5612     0.6023 H       
  48 H48           -5.1850     3.8918     1.6914 H       
  49 H49           -4.6457     3.9375    -0.0186 H       
  50 H50           -6.0368     1.9131    -1.5689 H       
  51 H51           -7.4214     1.3891    -0.5691 H       
  52 H52           -7.0265     3.9584    -1.8512 H       
  53 H53           -8.3954     3.4463    -0.8185 H       
  54 H54           -7.4633     4.4144     1.1022 H       
  55 H55           -7.2608     6.1999    -0.5162 H       
@<TRIPOS>BOND
   1    1    2 ar
   2    1    6 ar
   3    2    3 ar
   4    2   14 1
   5    3    4 ar
   6    4    5 ar
   7    4    7 1
   8    5    6 ar
   9    5    9 1
  10    6   33 1
  11    7    8 1
  12    7   22 1
  13    8    9 ar
  14    8   10 ar
  15    9   13 ar
  16   10   11 ar
  17   10   28 1
  18   11   12 ar
  19   12   13 ar
  20   12   34 1
  21   13   35 1
  22   14   15 1
  23   14   36 1
  24   15   16 ar
  25   15   20 ar
  26   16   17 ar
  27   17   18 ar
  28   18   19 ar
  29   18   21 1
  30   19   20 ar
  31   19   37 1
  32   20   38 1
  33   21   29 1
  34   21   27 1
  35   22   24 1
  36   22   23 1
  37   22   39 1
  38   23   26 1
  39   23   40 1
  40   23   41 1
  41   24   25 1
  42   24   42 1
  43   24   43 1
  44   25   26 1
  45   25   44 1
  46   25   45 1
  47   26   46 1
  48   26   47 1
  49   27   31 1
  50   27   48 1
  51   27   49 1
  52   29   30 1
  53   29   50 1
  54   29   51 1
  55   30   31 1
  56   30   52 1
  57   30   53 1
  58   31   32 1
  59   31   54 1
  60   32   55 1

#	End of record

