#	Name: ASD03730264
#	Creating user name:	WinNT
#	Creation time:	15. 06. 2019 20:44

#	Modifying user name:	WinNT
#	Modification time:	15. 06. 2019 20:44

#	Program:	/corina/corina34_cracker 3.40 0067  02.08.2006

@<TRIPOS>MOLECULE
ASD03730264
  64   69    0    0    0
SMALL
NO_CHARGES


@<TRIPOS>ATOM
   1 C1            -1.1637     1.4597     1.1708 C.2     
   2 C2            -1.1474    -0.0468     1.1351 C.3     
   3 O3            -1.1429     2.0413     2.2350 O.2     
   4 N4            -1.1957     2.1607     0.0202 N.am    
   5 C5            -1.3167     3.5534     0.0532 C.ar    
   6 C6            -2.0794     4.1603     1.0438 C.ar    
   7 C7            -2.2000     5.5333     1.0782 C.ar    
   8 C8            -1.5563     6.3127     0.1184 C.ar    
   9 C9            -0.7919     5.7017    -0.8743 C.ar    
  10 C10           -0.6694     4.3288    -0.9014 C.ar    
  11 O11            4.3406     6.9069     1.2456 O.3     
  12 C12            4.7686     5.5633     0.9547 C.3     
  13 O13            3.9444     4.7490     1.8094 O.3     
  14 C14            2.7996     5.4673     2.0053 C.ar    
  15 C15            3.0447     6.7947     1.6615 C.ar    
  16 C16            1.5469     5.0889     2.4539 C.ar    
  17 C17            0.5267     6.0280     2.5708 C.ar    
  18 C18            0.7871     7.3538     2.2373 C.ar    
  19 C19            2.0326     7.7322     1.7811 C.ar    
  20 O20           -0.7674     5.8639     2.9688 O.3     
  21 C21           -0.4825     8.1191     2.4982 C.3     
  22 C22           -1.3150     7.1432     3.3412 C.3     
  23 N23           -0.7343    10.3898     2.4493 N.am    
  24 C24           -0.2299     9.4091     3.2245 C.2     
  25 C25           -1.1872     8.5072     1.2326 C.ar    
  26 C26           -1.6850     7.7903     0.1531 C.ar    
  27 C27           -2.3062     8.4630    -0.8989 C.ar    
  28 C28           -2.4208     9.8385    -0.8584 C.ar    
  29 C29           -1.9256    10.5508     0.2150 C.ar    
  30 C30           -1.3030     9.8921     1.2740 C.ar    
  31 C31           -0.6913    11.8119     2.7985 C.3     
  32 C32            0.5954    12.4328     2.2509 C.3     
  33 C33            0.6403    13.9180     2.6155 C.3     
  34 C34            1.9270    14.5389     2.0679 C.3     
  35 C35            1.9719    16.0242     2.4325 C.3     
  36 O36            0.3194     9.5423     4.2976 O.2     
  37 H37           -1.1167    -0.4341     2.1535 H       
  38 H38           -2.0464    -0.4082     0.6359 H       
  39 H39           -0.2672    -0.3878     0.5900 H       
  40 H40           -1.1349     1.6992    -0.8308 H       
  41 H41           -2.5782     3.5560     1.7870 H       
  42 H42           -2.7931     6.0045     1.8480 H       
  43 H43           -0.2922     6.3037    -1.6188 H       
  44 H44           -0.0733     3.8552    -1.6675 H       
  45 H45            4.5890     5.3225    -0.0930 H       
  46 H46            5.8221     5.4347     1.2031 H       
  47 H47            1.3595     4.0579     2.7150 H       
  48 H48            2.2190     8.7626     1.5167 H       
  49 H49           -2.3703     7.2048     3.0752 H       
  50 H50           -1.1713     7.3309     4.4052 H       
  51 H51           -2.6954     7.9108    -1.7415 H       
  52 H52           -2.9011    10.3607    -1.6726 H       
  53 H53           -2.0209    11.6264     0.2344 H       
  54 H54           -1.5529    12.3189     2.3641 H       
  55 H55           -0.7143    11.9207     3.8828 H       
  56 H56            1.4570    11.9258     2.6853 H       
  57 H57            0.6184    12.3240     1.1665 H       
  58 H58           -0.2213    14.4250     2.1811 H       
  59 H59            0.6173    14.0268     3.6998 H       
  60 H60            2.7886    14.0319     2.5023 H       
  61 H61            1.9500    14.4302     0.9836 H       
  62 H62            2.8886    16.4665     2.0424 H       
  63 H63            1.1103    16.5312     1.9981 H       
  64 H64            1.9489    16.1329     3.5169 H       
@<TRIPOS>BOND
   1    1    2 1
   2    1    3 2
   3    1    4 am
   4    2   37 1
   5    2   38 1
   6    2   39 1
   7    4    5 1
   8    4   40 1
   9    5    6 ar
  10    5   10 ar
  11    6    7 ar
  12    6   41 1
  13    7    8 ar
  14    7   42 1
  15    8    9 ar
  16    8   26 1
  17    9   10 ar
  18    9   43 1
  19   10   44 1
  20   11   12 1
  21   11   15 1
  22   12   13 1
  23   12   45 1
  24   12   46 1
  25   13   14 1
  26   14   15 ar
  27   14   16 ar
  28   15   19 ar
  29   16   17 ar
  30   16   47 1
  31   17   18 ar
  32   17   20 1
  33   18   19 ar
  34   18   21 1
  35   19   48 1
  36   20   22 1
  37   21   22 1
  38   21   24 1
  39   21   25 1
  40   22   49 1
  41   22   50 1
  42   23   24 am
  43   23   30 1
  44   23   31 1
  45   24   36 2
  46   25   26 ar
  47   25   30 ar
  48   26   27 ar
  49   27   28 ar
  50   27   51 1
  51   28   29 ar
  52   28   52 1
  53   29   30 ar
  54   29   53 1
  55   31   32 1
  56   31   54 1
  57   31   55 1
  58   32   33 1
  59   32   56 1
  60   32   57 1
  61   33   34 1
  62   33   58 1
  63   33   59 1
  64   34   35 1
  65   34   60 1
  66   34   61 1
  67   35   62 1
  68   35   63 1
  69   35   64 1

#	End of record

