#	Name: ASD02030742
#	Creating user name:	WinNT
#	Creation time:	15. 06. 2019 20:16

#	Modifying user name:	WinNT
#	Modification time:	15. 06. 2019 20:16

#	Program:	/corina/corina34_cracker 3.40 0067  02.08.2006

@<TRIPOS>MOLECULE
ASD02030742
  28   29    0    0    0
SMALL
NO_CHARGES


@<TRIPOS>ATOM
   1 N1            -0.0169     1.3957     0.0097 N.2     
   2 N2             0.0021    -0.0041     0.0020 N.am    
   3 C3             1.1645    -0.6797    -0.0127 C.2     
   4 N4             2.3448    -0.0326    -0.0201 N.am    
   5 C5             2.3759     1.3163    -0.0127 C.2     
   6 C6             1.1077     2.0611     0.0026 C.2     
   7 O7             3.4389     1.9086    -0.0184 O.2     
   8 S8             1.1431    -2.3915    -0.0217 S.2     
   9 C9            -1.2627    -0.7434     0.0106 C.3     
  10 C10           -1.6886    -1.0085     1.4560 C.3     
  11 C11           -2.9896    -1.7690     1.4649 C.ar    
  12 C12           -2.9823    -3.1513     1.4574 C.ar    
  13 C13           -4.1756    -3.8489     1.4654 C.ar    
  14 C14           -5.3764    -3.1642     1.4814 C.ar    
  15 C15           -5.3838    -1.7819     1.4899 C.ar    
  16 C16           -4.1903    -1.0843     1.4862 C.ar    
  17 O17            1.1055     3.4198     0.0094 O.3     
  18 H18            3.1737    -0.5364    -0.0304 H       
  19 H19           -2.0305    -0.1556    -0.4925 H       
  20 H20           -1.1324    -1.6923    -0.5096 H       
  21 H21           -0.9208    -1.5962     1.9591 H       
  22 H22           -1.8189    -0.0596     1.9763 H       
  23 H23           -2.0441    -3.6862     1.4449 H       
  24 H24           -4.1699    -4.9289     1.4589 H       
  25 H25           -6.3088    -3.7092     1.4870 H       
  26 H26           -6.3219    -1.2469     1.5020 H       
  27 H27           -4.1960    -0.0044     1.4965 H       
  28 H28            0.2215     3.8116     0.0197 H       
@<TRIPOS>BOND
   1    1    2 1
   2    1    6 2
   3    2    3 am
   4    2    9 1
   5    3    4 am
   6    3    8 2
   7    4    5 am
   8    4   18 1
   9    5    6 1
  10    5    7 2
  11    6   17 1
  12    9   10 1
  13    9   19 1
  14    9   20 1
  15   10   11 1
  16   10   21 1
  17   10   22 1
  18   11   12 ar
  19   11   16 ar
  20   12   13 ar
  21   12   23 1
  22   13   14 ar
  23   13   24 1
  24   14   15 ar
  25   14   25 1
  26   15   16 ar
  27   15   26 1
  28   16   27 1
  29   17   28 1

#	End of record

