#	Name: ASD02440062
#	Creating user name:	WinNT
#	Creation time:	15. 06. 2019 20:21

#	Modifying user name:	WinNT
#	Modification time:	15. 06. 2019 20:21

#	Program:	/corina/corina34_cracker 3.40 0067  02.08.2006

@<TRIPOS>MOLECULE
ASD02440062
  63   67    0    0    0
SMALL
NO_CHARGES


@<TRIPOS>ATOM
   1 N1             0.0166     1.3479    -0.7012 N.am    
   2 C2             0.0560    -0.0178    -0.7768 C.2     
   3 S3             1.7585    -0.4877    -0.6332 S.3     
   4 C4             2.3577     1.1747    -0.4763 C.2     
   5 C5             1.1518     2.0091    -0.5488 C.2     
   6 N6            -0.9696    -0.8243    -0.9263 N.2     
   7 C7            -1.2580     2.0642    -0.7936 C.3     
   8 C8            -1.8434     2.2275     0.5854 C.ar    
   9 O9             1.1939     3.2229    -0.4739 O.2     
  10 C10            3.6418     1.5832    -0.3232 C.2     
  11 C11            4.7042     0.5951    -0.0866 C.ar    
  12 C12            4.3760    -0.7248     0.2422 C.ar    
  13 C13            5.3764    -1.6482     0.4627 C.ar    
  14 C14            6.7040    -1.2748     0.3602 C.ar    
  15 C15            7.0413     0.0332     0.0348 C.ar    
  16 C16            6.0478     0.9687    -0.1948 C.ar    
  17 C17           -3.2245     1.3983     2.3574 C.ar    
  18 C18           -2.6847     1.2549     1.0960 C.ar    
  19 C19           -1.5328     3.3468     1.3374 C.ar    
  20 C20           -2.0652     3.5026     2.6003 C.ar    
  21 C21           -2.9194     2.5277     3.1195 C.ar    
  22 C22           -3.4940     2.6882     4.4709 C.2     
  23 O23           -4.2338     1.8366     4.9214 O.2     
  24 O24           -3.1976     3.7791     5.2037 O.3     
  25 O25            8.3481     0.3929    -0.0633 O.3     
  26 C26            8.8600     1.2053     0.8982 C.ar    
  27 C27            8.0959     1.5354     2.0084 C.ar    
  28 C28           10.1498     1.7017     0.7743 C.ar    
  29 C29           10.6680     2.5270     1.7534 C.ar    
  30 C30            9.9025     2.8586     2.8561 C.ar    
  31 C31            8.6188     2.3611     2.9846 C.ar    
  32 C32           -0.7730    -2.1785    -0.9854 C.ar    
  33 C33           -1.5985    -3.0384    -0.2581 C.ar    
  34 C34           -1.3969    -4.4013    -0.3206 C.ar    
  35 C35           -0.3749    -4.9185    -1.1046 C.ar    
  36 C36            0.4481    -4.0677    -1.8293 C.ar    
  37 C37            0.2499    -2.7037    -1.7777 C.ar    
  38 O38           -0.1792    -6.2629    -1.1626 O.3     
  39 C39            0.8902    -6.7278    -1.9887 C.3     
  40 H40           -1.0916     3.0463    -1.2363 H       
  41 H41           -1.9492     1.4970    -1.4169 H       
  42 H42            3.8838     2.6345    -0.3751 H       
  43 H43            3.3403    -1.0201     0.3235 H       
  44 H44            5.1220    -2.6667     0.7168 H       
  45 H45            7.4822    -2.0031     0.5343 H       
  46 H46            6.3089     1.9856    -0.4478 H       
  47 H47           -3.8816     0.6387     2.7544 H       
  48 H48           -2.9196     0.3816     0.5055 H       
  49 H49           -0.8717     4.0999     0.9347 H       
  50 H50           -1.8216     4.3764     3.1864 H       
  51 H51           -3.5975     3.8399     6.0820 H       
  52 H52            7.0930     1.1474     2.1090 H       
  53 H53           10.7482     1.4427    -0.0866 H       
  54 H54           11.6720     2.9133     1.6576 H       
  55 H55           10.3095     3.5040     3.6205 H       
  56 H56            8.0245     2.6183     3.8489 H       
  57 H57           -2.3935    -2.6368     0.3528 H       
  58 H58           -2.0348    -5.0672     0.2416 H       
  59 H59            1.2422    -4.4745    -2.4378 H       
  60 H60            0.8906    -2.0424    -2.3422 H       
  61 H61            0.9363    -7.8159    -1.9452 H       
  62 H62            0.7179    -6.4122    -3.0177 H       
  63 H63            1.8320    -6.3097    -1.6333 H       
@<TRIPOS>BOND
   1    1    2 1
   2    1    5 am
   3    1    7 1
   4    2    3 1
   5    2    6 2
   6    3    4 1
   7    4    5 1
   8    4   10 2
   9    5    9 2
  10    6   32 1
  11    7    8 1
  12    7   40 1
  13    7   41 1
  14    8   19 ar
  15    8   18 ar
  16   10   11 1
  17   10   42 1
  18   11   12 ar
  19   11   16 ar
  20   12   13 ar
  21   12   43 1
  22   13   14 ar
  23   13   44 1
  24   14   15 ar
  25   14   45 1
  26   15   16 ar
  27   15   25 1
  28   16   46 1
  29   17   18 ar
  30   17   21 ar
  31   17   47 1
  32   18   48 1
  33   19   20 ar
  34   19   49 1
  35   20   21 ar
  36   20   50 1
  37   21   22 1
  38   22   23 2
  39   22   24 1
  40   24   51 1
  41   25   26 1
  42   26   28 ar
  43   26   27 ar
  44   27   31 ar
  45   27   52 1
  46   28   29 ar
  47   28   53 1
  48   29   30 ar
  49   29   54 1
  50   30   31 ar
  51   30   55 1
  52   31   56 1
  53   32   33 ar
  54   32   37 ar
  55   33   34 ar
  56   33   57 1
  57   34   35 ar
  58   34   58 1
  59   35   36 ar
  60   35   38 1
  61   36   37 ar
  62   36   59 1
  63   37   60 1
  64   38   39 1
  65   39   61 1
  66   39   62 1
  67   39   63 1

#	End of record

