#	Name: ASD08390016
#	Creating user name:	WinNT
#	Creation time:	15. 06. 2019 21:19

#	Modifying user name:	WinNT
#	Modification time:	15. 06. 2019 21:19

#	Program:	/corina/corina34_cracker 3.40 0067  02.08.2006

@<TRIPOS>MOLECULE
ASD08390016
  59   63    0    0    0
SMALL
NO_CHARGES


@<TRIPOS>ATOM
   1 N1             1.8185     1.1405     2.1618 N.2     
   2 C2             1.5973    -0.2851     2.4408 C.3     
   3 C3             2.2610    -1.0069     1.2513 C.3     
   4 N4             2.7838     0.0994     0.4324 N.pl3   
   5 C5             2.4707     1.2807     1.0528 C.2     
   6 C6             3.4736    -0.0312    -0.7601 C.2     
   7 C7             4.6089     0.8434    -1.0473 C.ar    
   8 C8             5.4167     1.3207    -0.0010 C.ar    
   9 C9             6.4836     2.1440    -0.2824 C.ar    
  10 C10            6.7620     2.5026    -1.5918 C.ar    
  11 C11            5.9717     2.0374    -2.6310 C.ar    
  12 C12            4.9038     1.2081    -2.3720 C.ar    
  13 C13            3.0668    -1.0438    -1.7326 C.ar    
  14 C14            3.9694    -1.4832    -2.7160 C.ar    
  15 C15            3.5761    -2.4373    -3.6272 C.ar    
  16 C16            2.2950    -2.9638    -3.5773 C.ar    
  17 C17            1.3971    -2.5374    -2.6115 C.ar    
  18 C18            1.7722    -1.5888    -1.6870 C.ar    
  19 C19            2.8455     2.6024     0.5020 C.ar    
  20 C20            3.2230     3.6367     1.3586 C.ar    
  21 C21            3.5713     4.8665     0.8389 C.ar    
  22 C22            3.5463     5.0751    -0.5285 C.ar    
  23 C23            3.1725     4.0534    -1.3832 C.ar    
  24 C24            2.8284     2.8171    -0.8763 C.ar    
  25 C25            0.1224    -0.5913     2.4880 C.2     
  26 O26           -0.2905    -1.6421     2.0578 O.2     
  27 O27           -0.7324     0.3034     3.0081 O.3     
  28 C28            3.3835    -1.8930     1.7266 C.ar    
  29 C29            3.2380    -3.2674     1.6994 C.ar    
  30 C30            4.2677    -4.0802     2.1353 C.ar    
  31 C31            5.4430    -3.5186     2.5981 C.ar    
  32 C32            5.5888    -2.1442     2.6244 C.ar    
  33 C33            4.5608    -1.3315     2.1844 C.ar    
  34 C34            2.2687    -0.6844     3.7563 C.3     
  35 H35            1.5244    -1.5842     0.6924 H       
  36 H36            5.2010     1.0430     1.0202 H       
  37 H37            7.1056     2.5120     0.5202 H       
  38 H38            7.6005     3.1494    -1.8039 H       
  39 H39            6.1970     2.3231    -3.6479 H       
  40 H40            4.2921     0.8427    -3.1837 H       
  41 H41            4.9678    -1.0736    -2.7571 H       
  42 H42            4.2681    -2.7764    -4.3839 H       
  43 H43            1.9942    -3.7114    -4.2963 H       
  44 H44            0.4011    -2.9538    -2.5815 H       
  45 H45            1.0726    -1.2613    -0.9321 H       
  46 H46            3.2422     3.4753     2.4263 H       
  47 H47            3.8637     5.6680     1.5011 H       
  48 H48            3.8195     6.0395    -0.9304 H       
  49 H49            3.1543     4.2226    -2.4497 H       
  50 H50            2.5414     2.0189    -1.5448 H       
  51 H51           -1.6689     0.0623     3.0167 H       
  52 H52            2.3198    -3.7062     1.3379 H       
  53 H53            4.1538    -5.1540     2.1148 H       
  54 H54            6.2472    -4.1536     2.9393 H       
  55 H55            6.5069    -1.7054     2.9862 H       
  56 H56            4.6761    -0.2578     2.2014 H       
  57 H57            1.8314    -0.1134     4.5754 H       
  58 H58            2.1162    -1.7490     3.9336 H       
  59 H59            3.3368    -0.4753     3.6972 H       
@<TRIPOS>BOND
   1    1    2 1
   2    1    5 2
   3    2   25 1
   4    2   34 1
   5    2    3 1
   6    3    4 1
   7    3   28 1
   8    3   35 1
   9    4    5 1
  10    4    6 1
  11    5   19 1
  12    6    7 1
  13    6   13 1
  14    7    8 ar
  15    7   12 ar
  16    8    9 ar
  17    8   36 1
  18    9   10 ar
  19    9   37 1
  20   10   11 ar
  21   10   38 1
  22   11   12 ar
  23   11   39 1
  24   12   40 1
  25   13   14 ar
  26   13   18 ar
  27   14   15 ar
  28   14   41 1
  29   15   16 ar
  30   15   42 1
  31   16   17 ar
  32   16   43 1
  33   17   18 ar
  34   17   44 1
  35   18   45 1
  36   19   20 ar
  37   19   24 ar
  38   20   21 ar
  39   20   46 1
  40   21   22 ar
  41   21   47 1
  42   22   23 ar
  43   22   48 1
  44   23   24 ar
  45   23   49 1
  46   24   50 1
  47   25   26 2
  48   25   27 1
  49   27   51 1
  50   28   29 ar
  51   28   33 ar
  52   29   30 ar
  53   29   52 1
  54   30   31 ar
  55   30   53 1
  56   31   32 ar
  57   31   54 1
  58   32   33 ar
  59   32   55 1
  60   33   56 1
  61   34   57 1
  62   34   58 1
  63   34   59 1

#	End of record

