#	Name: ASD02508089
#	Creating user name:	WinNT
#	Creation time:	15. 06. 2019 20:23

#	Modifying user name:	WinNT
#	Modification time:	15. 06. 2019 20:23

#	Program:	/corina/corina34_cracker 3.40 0067  02.08.2006

@<TRIPOS>MOLECULE
ASD02508089
  30   32    0    0    0
SMALL
NO_CHARGES


@<TRIPOS>ATOM
   1 C1             0.9369     2.2603     0.0108 C.ar    
   2 C2             0.6004     0.9035     0.1301 C.ar    
   3 C3             2.2869     2.5824    -0.1347 C.ar    
   4 C4             3.2660     1.6063    -0.1617 C.ar    
   5 C5             2.9125     0.2697    -0.0423 C.ar    
   6 C6             1.5721    -0.0688     0.1040 C.ar    
   7 N7             0.0841     3.3527     0.0130 N.am    
   8 C8             0.6097     4.5749    -0.1138 C.2     
   9 S9             2.3604     4.3458    -0.2561 S.3     
  10 N10            3.8945    -0.7265    -0.0687 N.am    
  11 S11            3.8686    -1.9446     1.0528 S.o2    
  12 C12            4.0527    -1.1981     2.6381 C.ar    
  13 C13            2.9354    -0.8997     3.3955 C.ar    
  14 O14            0.0067     5.6321    -0.1311 O.2     
  15 O15            2.5587    -2.4944     1.0178 O.2     
  16 O16            5.0415    -2.7164     0.8340 O.2     
  17 C17            5.3145    -0.9159     3.1269 C.ar    
  18 C18            5.4589    -0.3302     4.3707 C.ar    
  19 C19            4.3414    -0.0263     5.1255 C.ar    
  20 C20            3.0798    -0.3140     4.6393 C.ar    
  21 H21           -0.4352     0.6192     0.2442 H       
  22 H22            4.3035     1.8835    -0.2759 H       
  23 H23            1.2909    -1.1073     0.1974 H       
  24 H24           -0.8741     3.2328     0.1043 H       
  25 H25            4.5905    -0.7036    -0.7439 H       
  26 H26            1.9497    -1.1239     3.0154 H       
  27 H27            6.1876    -1.1534     2.5372 H       
  28 H28            6.4449    -0.1104     4.7529 H       
  29 H29            4.4543     0.4310     6.0974 H       
  30 H30            2.2067    -0.0765     5.2290 H       
@<TRIPOS>BOND
   1    1    2 ar
   2    1    3 ar
   3    1    7 1
   4    2    6 ar
   5    2   21 1
   6    3    4 ar
   7    3    9 1
   8    4    5 ar
   9    4   22 1
  10    5    6 ar
  11    5   10 1
  12    6   23 1
  13    7    8 am
  14    7   24 1
  15    8    9 1
  16    8   14 2
  17   10   11 am
  18   10   25 1
  19   11   12 1
  20   11   15 2
  21   11   16 2
  22   12   13 ar
  23   12   17 ar
  24   13   20 ar
  25   13   26 1
  26   17   18 ar
  27   17   27 1
  28   18   19 ar
  29   18   28 1
  30   19   20 ar
  31   19   29 1
  32   20   30 1

#	End of record

