#	Name: ASD01813741
#	Creating user name:	WinNT
#	Creation time:	15. 06. 2019 19:31

#	Modifying user name:	WinNT
#	Modification time:	15. 06. 2019 19:31

#	Program:	/corina/corina34_cracker 3.40 0067  02.08.2006

@<TRIPOS>MOLECULE
ASD01813741
  40   42    0    0    0
SMALL
NO_CHARGES


@<TRIPOS>ATOM
   1 C1            -0.0168     1.3835    -0.0518 C.ar    
   2 C2             0.0020    -0.0037    -0.0588 C.ar    
   3 C3             1.1977    -0.6920    -0.0537 C.ar    
   4 C4             2.4035     0.0084    -0.0413 C.ar    
   5 C5             2.3797     1.4130    -0.0342 C.ar    
   6 C6             1.1627     2.0947    -0.0395 C.ar    
   7 N7             3.6056    -0.6668    -0.0350 N.pl3   
   8 C8             4.7891    -0.0410    -0.0218 C.2     
   9 C9             4.8932     1.3356    -0.0134 C.2     
  10 C10            3.6619     2.1417    -0.0212 C.2     
  11 O11            3.7002     3.3596    -0.0146 O.2     
  12 C12            6.2115     1.9851     0.0021 C.2     
  13 O13            6.3001     3.3302     0.0102 O.3     
  14 O14            7.2220     1.3094     0.0077 O.2     
  15 C15            3.5871    -2.1316    -0.0427 C.3     
  16 C16            3.4445    -2.6248    -1.4595 C.ar    
  17 N17            2.2485    -2.7326    -2.0024 N.ar    
  18 N18            2.0762    -3.1475    -3.2047 N.ar    
  19 C19            3.0918    -3.4954    -3.9812 C.ar    
  20 C20            4.3952    -3.4141    -3.4914 C.ar    
  21 C21            4.5735    -2.9600    -2.1945 C.ar    
  22 F22            1.2003    -2.0429    -0.0602 F       
  23 N23            2.8593    -3.9400    -5.2780 N.pl3   
  24 C24            3.9727    -4.4273    -6.0959 C.3     
  25 C25            1.5009    -3.9212    -5.8263 C.3     
  26 H26           -0.9607     1.9082    -0.0605 H       
  27 H27           -0.9292    -0.5507    -0.0680 H       
  28 H28            1.1454     3.1746    -0.0344 H       
  29 H29            5.6925    -0.6328    -0.0171 H       
  30 H30            7.1887     3.7116     0.0203 H       
  31 H31            4.5175    -2.5090     0.3815 H       
  32 H32            2.7459    -2.4875     0.5522 H       
  33 H33            5.2392    -3.6921    -4.1052 H       
  34 H34            5.5611    -2.8774    -1.7652 H       
  35 H35            4.4382    -5.2815    -5.6042 H       
  36 H36            3.5995    -4.7302    -7.0742 H       
  37 H37            4.7088    -3.6327    -6.2180 H       
  38 H38            1.3202    -2.9646    -6.3166 H       
  39 H39            1.3905    -4.7277    -6.5512 H       
  40 H40            0.7813    -4.0573    -5.0190 H       
@<TRIPOS>BOND
   1    1    2 ar
   2    1    6 ar
   3    1   26 1
   4    2    3 ar
   5    2   27 1
   6    3   22 1
   7    3    4 ar
   8    4    5 ar
   9    4    7 1
  10    5    6 ar
  11    5   10 1
  12    6   28 1
  13    7    8 1
  14    7   15 1
  15    8    9 2
  16    8   29 1
  17    9   10 1
  18    9   12 1
  19   10   11 2
  20   12   13 1
  21   12   14 2
  22   13   30 1
  23   15   16 1
  24   15   31 1
  25   15   32 1
  26   16   17 ar
  27   16   21 ar
  28   17   18 ar
  29   18   19 ar
  30   19   20 ar
  31   19   23 1
  32   20   21 ar
  33   20   33 1
  34   21   34 1
  35   23   24 1
  36   23   25 1
  37   24   35 1
  38   24   36 1
  39   24   37 1
  40   25   38 1
  41   25   39 1
  42   25   40 1

#	End of record

