#	Name: ASD02039289
#	Creating user name:	WinNT
#	Creation time:	15. 06. 2019 20:18

#	Modifying user name:	WinNT
#	Modification time:	15. 06. 2019 20:18

#	Program:	/corina/corina34_cracker 3.40 0067  02.08.2006

@<TRIPOS>MOLECULE
ASD02039289
  57   60    0    0    0
SMALL
NO_CHARGES


@<TRIPOS>ATOM
   1 C1             0.1358     1.1849    -0.3165 C.ar    
   2 C2             0.5176    -0.0930     0.0499 C.ar    
   3 C3            -0.3865    -1.1374    -0.0185 C.ar    
   4 C4            -1.6782    -0.9086    -0.4540 C.ar    
   5 C5            -2.0681     0.3796    -0.8243 C.ar    
   6 C6            -1.1531     1.4272    -0.7472 C.ar    
   7 C7            -3.4525     0.6328    -1.2933 C.ar    
   8 C8            -4.1949     1.6764    -0.7438 C.ar    
   9 C9             1.1277     2.3168    -0.2393 C.3     
  10 N10            1.9438     2.3347    -1.4557 N.am    
  11 C11            1.4503     3.0089    -2.6591 C.3     
  12 C12            3.1488     1.7310    -1.4678 C.2     
  13 C13            3.6004     0.9646    -0.2935 C.2     
  14 C14            4.7333     0.2091    -0.2106 C.2     
  15 C15            2.4331     4.1080    -3.0674 C.3     
  16 N16            2.9681     0.8861     0.9053 N.2     
  17 C17            3.6609     0.1198     1.6973 C.2     
  18 N18            4.7638    -0.3180     1.0360 N.pl3   
  19 O19            3.8633     1.8190    -2.4481 O.2     
  20 C20            5.7999    -1.2024     1.5749 C.3     
  21 F21           -2.5610    -1.9290    -0.5216 F       
  22 C22            1.3203     1.9930    -3.7958 C.3     
  23 C23           -4.0099    -0.1697    -2.2883 C.ar    
  24 C24           -5.3006     0.0740    -2.7194 C.ar    
  25 C25           -6.0380     1.1117    -2.1645 C.ar    
  26 C26           -5.4839     1.9132    -1.1789 C.ar    
  27 O27           -5.8576    -0.7029    -3.6937 O.3     
  28 C28           -6.9326    -1.5487    -3.2802 C.3     
  29 C29           -8.2502    -0.7895    -3.2889 C.3     
  30 C30           -8.2746     0.3388    -2.2698 C.3     
  31 O31           -7.3111     1.3410    -2.5999 O.3     
  32 H32            1.5261    -0.2761     0.3904 H       
  33 H33           -0.0827    -2.1332     0.2685 H       
  34 H34           -1.4492     2.4259    -1.0325 H       
  35 H35           -3.7616     2.3007     0.0237 H       
  36 H36            0.5934     3.2623    -0.1462 H       
  37 H37            1.7721     2.1767     0.6286 H       
  38 H38            0.4754     3.4511    -2.4538 H       
  39 H39            5.4655     0.0597    -0.9904 H       
  40 H40            3.4238     3.6757    -3.2078 H       
  41 H41            2.1006     4.5649    -3.9995 H       
  42 H42            2.4752     4.8665    -2.2857 H       
  43 H43            3.4022    -0.1257     2.7167 H       
  44 H44            5.5318    -2.2399     1.3752 H       
  45 H45            6.7543    -0.9758     1.0996 H       
  46 H46            5.8845    -1.0496     2.6508 H       
  47 H47            0.5860     1.2349    -3.5233 H       
  48 H48            0.9967     2.5027    -4.7033 H       
  49 H49            2.2855     1.5178    -3.9705 H       
  50 H50           -3.4365    -0.9767    -2.7198 H       
  51 H51           -6.0606     2.7188    -0.7491 H       
  52 H52           -7.0032    -2.3976    -3.9602 H       
  53 H53           -6.7352    -1.9130    -2.2720 H       
  54 H54           -8.4102    -0.3713    -4.2827 H       
  55 H55           -9.0597    -1.4845    -3.0657 H       
  56 H56           -9.2679     0.7873    -2.2549 H       
  57 H57           -8.0490    -0.0645    -1.2826 H       
@<TRIPOS>BOND
   1    1    2 ar
   2    1    9 1
   3    1    6 ar
   4    2    3 ar
   5    2   32 1
   6    3    4 ar
   7    3   33 1
   8    4    5 ar
   9    4   21 1
  10    5    6 ar
  11    5    7 1
  12    6   34 1
  13    7   23 ar
  14    7    8 ar
  15    8   26 ar
  16    8   35 1
  17    9   10 1
  18    9   36 1
  19    9   37 1
  20   10   11 1
  21   10   12 am
  22   11   22 1
  23   11   15 1
  24   11   38 1
  25   12   13 1
  26   12   19 2
  27   13   14 2
  28   13   16 1
  29   14   18 1
  30   14   39 1
  31   15   40 1
  32   15   41 1
  33   15   42 1
  34   16   17 2
  35   17   18 1
  36   17   43 1
  37   18   20 1
  38   20   44 1
  39   20   45 1
  40   20   46 1
  41   22   47 1
  42   22   48 1
  43   22   49 1
  44   23   24 ar
  45   23   50 1
  46   24   25 ar
  47   24   27 1
  48   25   26 ar
  49   25   31 1
  50   26   51 1
  51   27   28 1
  52   28   29 1
  53   28   52 1
  54   28   53 1
  55   29   30 1
  56   29   54 1
  57   29   55 1
  58   30   31 1
  59   30   56 1
  60   30   57 1

#	End of record

