#	Name: ASD01916450
#	Creating user name:	WinNT
#	Creation time:	15. 06. 2019 20:07

#	Modifying user name:	WinNT
#	Modification time:	15. 06. 2019 20:07

#	Program:	/corina/corina34_cracker 3.40 0067  02.08.2006

@<TRIPOS>MOLECULE
ASD01916450
  38   40    0    0    0
SMALL
NO_CHARGES


@<TRIPOS>ATOM
   1 C1            -0.0167     1.3789     0.0096 C.ar    
   2 C2             0.0021    -0.0041     0.0020 C.ar    
   3 C3             1.2201    -0.6688    -0.0132 C.ar    
   4 C4             2.3827     0.0819    -0.0203 C.ar    
   5 C5             2.2904     1.4738    -0.0120 C.ar    
   6 N6             1.1040     2.0708     0.0026 N.ar    
   7 C7             3.4840     2.2650    -0.0192 C.1     
   8 C8             4.4625     2.9137    -0.0251 C.1     
   9 C9             5.6893     3.7271    -0.0325 C.3     
  10 C10            5.3174     5.2112    -0.0209 C.3     
  11 N11            6.5385     6.0206    -0.0283 N.pl3   
  12 N12            7.5043     5.9320     0.8170 N.2     
  13 N13            8.4285     6.7808     0.5350 N.2     
  14 C14            8.0612     7.4742    -0.5573 C.2     
  15 C15            6.8431     6.9830    -0.9282 C.2     
  16 C16            8.8293     8.5531    -1.2282 C.ar    
  17 C17           10.0707     8.9410    -0.7289 C.ar    
  18 C18           10.7815     9.9440    -1.3559 C.ar    
  19 C19           10.2622    10.5650    -2.4801 C.ar    
  20 C20            9.0282    10.1823    -2.9798 C.ar    
  21 C21            8.3132     9.1766    -2.3621 C.ar    
  22 F22           10.9612    11.5468    -3.0906 F       
  23 C23           -1.3377     2.1041     0.0198 C.3     
  24 F24           -1.7402     2.3213     1.3419 F       
  25 H25           -0.9229    -0.5616     0.0082 H       
  26 H26            1.2599    -1.7481    -0.0191 H       
  27 H27            3.3477    -0.4030    -0.0318 H       
  28 H28            6.2846     3.4948     0.8506 H       
  29 H29            6.2675     3.5044    -0.9292 H       
  30 H30            4.7222     5.4434    -0.9040 H       
  31 H31            4.7392     5.4339     0.8758 H       
  32 H32            6.2432     7.3002    -1.7684 H       
  33 H33           10.4760     8.4577     0.1477 H       
  34 H34           11.7438    10.2456    -0.9693 H       
  35 H35            8.6270    10.6689    -3.8566 H       
  36 H36            7.3530     8.8760    -2.7548 H       
  37 H37           -1.2303     3.0618    -0.4893 H       
  38 H38           -2.0869     1.5015    -0.4938 H       
@<TRIPOS>BOND
   1    1    2 ar
   2    1    6 ar
   3    1   23 1
   4    2    3 ar
   5    2   25 1
   6    3    4 ar
   7    3   26 1
   8    4    5 ar
   9    4   27 1
  10    5    6 ar
  11    5    7 1
  12    7    8 3
  13    8    9 1
  14    9   10 1
  15    9   28 1
  16    9   29 1
  17   10   11 1
  18   10   30 1
  19   10   31 1
  20   11   12 1
  21   11   15 1
  22   12   13 2
  23   13   14 1
  24   14   15 2
  25   14   16 1
  26   15   32 1
  27   16   17 ar
  28   16   21 ar
  29   17   18 ar
  30   17   33 1
  31   18   19 ar
  32   18   34 1
  33   19   20 ar
  34   19   22 1
  35   20   21 ar
  36   20   35 1
  37   21   36 1
  38   23   24 1
  39   23   37 1
  40   23   38 1

#	End of record

