#	Name: ASD05503051
#	Creating user name:	WinNT
#	Creation time:	15. 06. 2019 21:01

#	Modifying user name:	WinNT
#	Modification time:	15. 06. 2019 21:01

#	Program:	/corina/corina34_cracker 3.40 0067  02.08.2006

@<TRIPOS>MOLECULE
ASD05503051
  39   40    0    0    0
SMALL
NO_CHARGES


@<TRIPOS>ATOM
   1 C1             0.3317     1.4772     0.0353 C.ar    
   2 C2             0.3213     0.0886     0.0554 C.ar    
   3 C3             1.5184    -0.6134     0.0484 C.ar    
   4 C4             2.7227     0.0746     0.0213 C.ar    
   5 C5             2.7268     1.4649     0.0012 C.ar    
   6 C6             1.5325     2.1607     0.0083 C.ar    
   7 N7            -0.8956    -0.6024     0.0832 N.am    
   8 C8            -1.9448    -0.0926     0.7584 C.2     
   9 C9            -3.2870    -0.7745     0.6917 C.3     
  10 O10           -1.8086     0.9151     1.4196 O.2     
  11 C11           -4.2961     0.0017     1.5404 C.3     
  12 C12           -5.6588    -0.6907     1.4728 C.3     
  13 Cl13           4.2329     2.3275    -0.0321 Cl      
  14 N14            3.9315    -0.6295     0.0146 N.am    
  15 C15            3.9740    -1.8911    -0.4578 C.2     
  16 C16            5.2202    -2.6779    -0.3525 C.ar    
  17 O17            2.9869    -2.3817    -0.9706 O.2     
  18 C18            6.3555    -2.1177     0.2357 C.ar    
  19 C19            7.5157    -2.8579     0.3313 C.ar    
  20 C20            7.5565    -4.1529    -0.1545 C.ar    
  21 C21            6.4358    -4.7151    -0.7388 C.ar    
  22 C22            5.2661    -3.9879    -0.8360 C.ar    
  23 Br23           3.7346    -4.7580    -1.6342 Br      
  24 H24           -0.5999     2.0236     0.0362 H       
  25 H25            1.5125    -1.6933     0.0643 H       
  26 H26            1.5378     3.2406    -0.0073 H       
  27 H27           -0.9839    -1.4482    -0.3834 H       
  28 H28           -3.6287    -0.8037    -0.3429 H       
  29 H29           -3.1972    -1.7915     1.0736 H       
  30 H30           -3.9543     0.0309     2.5750 H       
  31 H31           -4.3858     1.0186     1.1586 H       
  32 H32           -6.3776    -0.1377     2.0774 H       
  33 H33           -6.0005    -0.7199     0.4381 H       
  34 H34           -5.5690    -1.7077     1.8546 H       
  35 H35            4.7391    -0.2098     0.3499 H       
  36 H36            6.3257    -1.1069     0.6147 H       
  37 H37            8.3945    -2.4253     0.7862 H       
  38 H38            8.4679    -4.7273    -0.0775 H       
  39 H39            6.4746    -5.7262    -1.1162 H       
@<TRIPOS>BOND
   1    1    2 ar
   2    1    6 ar
   3    1   24 1
   4    2    3 ar
   5    2    7 1
   6    3    4 ar
   7    3   25 1
   8    4    5 ar
   9    4   14 1
  10    5    6 ar
  11    5   13 1
  12    6   26 1
  13    7    8 am
  14    7   27 1
  15    8    9 1
  16    8   10 2
  17    9   11 1
  18    9   28 1
  19    9   29 1
  20   11   12 1
  21   11   30 1
  22   11   31 1
  23   12   32 1
  24   12   33 1
  25   12   34 1
  26   14   15 am
  27   14   35 1
  28   15   16 1
  29   15   17 2
  30   16   18 ar
  31   16   22 ar
  32   18   19 ar
  33   18   36 1
  34   19   20 ar
  35   19   37 1
  36   20   21 ar
  37   20   38 1
  38   21   22 ar
  39   21   39 1
  40   22   23 1

#	End of record

