#	Name: ASD01913192
#	Creating user name:	WinNT
#	Creation time:	15. 06. 2019 20:01

#	Modifying user name:	WinNT
#	Modification time:	15. 06. 2019 20:01

#	Program:	/corina/corina34_cracker 3.40 0067  02.08.2006

@<TRIPOS>MOLECULE
ASD01913192
  63   67    0    0    0
SMALL
NO_CHARGES


@<TRIPOS>ATOM
   1 N1             1.6989     1.7318     1.4024 N.pl3   
   2 C2             2.0539     0.3975     1.6136 C.ar    
   3 C3             2.6555     0.0177     2.8066 C.ar    
   4 C4             3.0048    -1.3026     3.0123 C.ar    
   5 C5             2.7563    -2.2459     2.0322 C.ar    
   6 C6             2.1576    -1.8712     0.8434 C.ar    
   7 C7             1.8010    -0.5536     0.6333 C.ar    
   8 C8             1.0645     2.1306     0.1436 C.3     
   9 C9             1.0912     6.2199    -1.2069 C.3     
  10 N10            1.5740     5.8610     0.1310 N.am    
  11 C11            1.9410     4.4538     0.3616 C.3     
  12 C12            0.6765     3.6089     0.2139 C.3     
  13 C13           -0.0757     3.9835    -1.0358 C.ar    
  14 C14           -0.9905     3.0650    -1.5368 C.ar    
  15 C15           -1.7193     3.3486    -2.6727 C.ar    
  16 C16           -1.5408     4.5571    -3.3204 C.ar    
  17 C17           -0.6307     5.4693    -2.8275 C.ar    
  18 C18            0.1063     5.1832    -1.6862 C.ar    
  19 C19            1.6780     6.7821     1.1093 C.2     
  20 C20            1.4212     8.2056     0.8134 C.ar    
  21 C21            0.8934     9.0384     1.7991 C.ar    
  22 C22            0.6537    10.3808     1.5140 C.ar    
  23 C23            0.9455    10.8848     0.2358 C.ar    
  24 C24            1.4700    10.0465    -0.7374 C.ar    
  25 C25            1.7126     8.7200    -0.4539 C.ar    
  26 O26            1.9833     6.4409     2.2356 O.2     
  27 C27            0.1114    11.2435     2.5202 C.1     
  28 C28           -0.3333    11.9507     3.3451 C.1     
  29 C29           -0.8756    12.8134     4.3512 C.ar    
  30 C30           -1.1131    14.1590     4.0571 C.ar    
  31 C31           -1.6371    14.9784     5.0398 C.ar    
  32 C32           -1.9081    14.4298     6.2866 C.ar    
  33 C33           -1.6491    13.0901     6.5105 C.ar    
  34 N34           -1.1547    12.3274     5.5571 N.ar    
  35 O35            0.7141    12.1907    -0.0472 O.3     
  36 C36            1.0343    12.6351    -1.3671 C.3     
  37 H37            1.8687     2.3936     2.0909 H       
  38 H38            2.8501     0.7540     3.5724 H       
  39 H39            3.4729    -1.5985     3.9396 H       
  40 H40            3.0308    -3.2776     2.1955 H       
  41 H41            1.9650    -2.6104     0.0800 H       
  42 H42            1.3294    -0.2624    -0.2937 H       
  43 H43            1.7623     1.9769    -0.6796 H       
  44 H44            0.1712     1.5279    -0.0200 H       
  45 H45            0.6026     7.1934    -1.1671 H       
  46 H46            1.9341     6.2657    -1.8965 H       
  47 H47            2.6819     4.1406    -0.3740 H       
  48 H48            2.3464     4.3383     1.3667 H       
  49 H49            0.0345     3.7701     1.0799 H       
  50 H50           -1.1317     2.1206    -1.0323 H       
  51 H51           -2.4274     2.6286    -3.0556 H       
  52 H52           -2.1111     4.7858    -4.2086 H       
  53 H53           -0.4903     6.4130    -3.3335 H       
  54 H54            0.6710     8.6443     2.7797 H       
  55 H55            1.6932    10.4363    -1.7196 H       
  56 H56            2.1256     8.0741    -1.2147 H       
  57 H57           -0.8904    14.5530     3.0765 H       
  58 H58           -1.8311    16.0223     4.8424 H       
  59 H59           -2.3174    15.0444     7.0747 H       
  60 H60           -1.8593    12.6620     7.4795 H       
  61 H61            2.0963    12.4783    -1.5556 H       
  62 H62            0.4491    12.0701    -2.0927 H       
  63 H63            0.8016    13.6960    -1.4597 H       
@<TRIPOS>BOND
   1    1    2 1
   2    1    8 1
   3    1   37 1
   4    2    3 ar
   5    2    7 ar
   6    3    4 ar
   7    3   38 1
   8    4    5 ar
   9    4   39 1
  10    5    6 ar
  11    5   40 1
  12    6    7 ar
  13    6   41 1
  14    7   42 1
  15    8   12 1
  16    8   43 1
  17    8   44 1
  18    9   10 1
  19    9   18 1
  20    9   45 1
  21    9   46 1
  22   10   11 1
  23   10   19 am
  24   11   12 1
  25   11   47 1
  26   11   48 1
  27   12   13 1
  28   12   49 1
  29   13   14 ar
  30   13   18 ar
  31   14   15 ar
  32   14   50 1
  33   15   16 ar
  34   15   51 1
  35   16   17 ar
  36   16   52 1
  37   17   18 ar
  38   17   53 1
  39   19   20 1
  40   19   26 2
  41   20   21 ar
  42   20   25 ar
  43   21   22 ar
  44   21   54 1
  45   22   23 ar
  46   22   27 1
  47   23   24 ar
  48   23   35 1
  49   24   25 ar
  50   24   55 1
  51   25   56 1
  52   27   28 3
  53   28   29 1
  54   29   30 ar
  55   29   34 ar
  56   30   31 ar
  57   30   57 1
  58   31   32 ar
  59   31   58 1
  60   32   33 ar
  61   32   59 1
  62   33   34 ar
  63   33   60 1
  64   35   36 1
  65   36   61 1
  66   36   62 1
  67   36   63 1

#	End of record

