#	Name: ASD01200174
#	Creating user name:	WinNT
#	Creation time:	15. 06. 2019 19:08

#	Modifying user name:	WinNT
#	Modification time:	15. 06. 2019 19:08

#	Program:	/corina/corina34_cracker 3.40 0067  02.08.2006

@<TRIPOS>MOLECULE
ASD01200174
  47   49    0    0    0
SMALL
NO_CHARGES


@<TRIPOS>ATOM
   1 C1             0.9786     1.3643    -1.7314 C.2     
   2 C2             0.8673    -0.1352    -1.6316 C.3     
   3 O3             1.5846     1.9851    -0.8840 O.2     
   4 N4             0.4093     2.0150    -2.7654 N.am    
   5 C5             0.4218     3.4084    -2.8040 C.ar    
   6 C6            -0.0642     4.0708    -3.9256 C.ar    
   7 C7            -0.0460     5.4540    -3.9508 C.ar    
   8 C8             0.4599     6.1300    -2.8486 C.ar    
   9 C9             0.9262     5.4077    -1.7683 C.ar    
  10 N10            0.8912     4.0888    -1.7703 N.ar    
  11 S11            1.7366    -0.7085    -0.1463 S.3     
  12 N12            2.5858    -3.2574    -0.4074 N.am    
  13 C13            1.3702    -2.4849    -0.1191 C.3     
  14 C14            0.9328    -2.9058     1.2646 C.2     
  15 C15            1.8091    -3.8094     1.6916 C.2     
  16 C16            2.8328    -4.0322     0.6655 C.2     
  17 O17            3.7672    -4.8037     0.7684 O.2     
  18 C18            1.7581    -4.5014     3.0294 C.3     
  19 C19           -0.2692    -2.3971     2.0180 C.3     
  20 C20            3.3791    -3.2001    -1.6377 C.3     
  21 C21            4.4436    -2.1422    -1.5001 C.ar    
  22 C22            5.6847    -2.4736    -0.9894 C.ar    
  23 C23            6.6618    -1.5044    -0.8632 C.ar    
  24 C24            6.3973    -0.2011    -1.2486 C.ar    
  25 C25            5.1538     0.1296    -1.7600 C.ar    
  26 C26            4.1800    -0.8424    -1.8901 C.ar    
  27 F27            7.3516     0.7472    -1.1253 F       
  28 H28           -0.1835    -0.4183    -1.5695 H       
  29 H29            1.3152    -0.5924    -2.5139 H       
  30 H30           -0.0091     1.5136    -3.4827 H       
  31 H31           -0.4504     3.5131    -4.7660 H       
  32 H32           -0.4165     5.9957    -4.8086 H       
  33 H33            0.4887     7.2095    -2.8366 H       
  34 H34            1.3210     5.9291    -0.9088 H       
  35 H35            0.5941    -2.7195    -0.8476 H       
  36 H36            1.1731    -5.4170     2.9427 H       
  37 H37            2.7705    -4.7460     3.3507 H       
  38 H38            1.2938    -3.8416     3.7623 H       
  39 H39           -1.1088    -3.0745     1.8627 H       
  40 H40           -0.0361    -2.3452     3.0816 H       
  41 H41           -0.5319    -1.4035     1.6548 H       
  42 H42            3.8491    -4.1679    -1.8124 H       
  43 H43            2.7295    -2.9547    -2.4778 H       
  44 H44            5.8907    -3.4902    -0.6885 H       
  45 H45            7.6313    -1.7635    -0.4638 H       
  46 H46            4.9464     1.1459    -2.0609 H       
  47 H47            3.2114    -0.5855    -2.2929 H       
@<TRIPOS>BOND
   1    1    2 1
   2    1    3 2
   3    1    4 am
   4    2   11 1
   5    2   28 1
   6    2   29 1
   7    4    5 1
   8    4   30 1
   9    5    6 ar
  10    5   10 ar
  11    6    7 ar
  12    6   31 1
  13    7    8 ar
  14    7   32 1
  15    8    9 ar
  16    8   33 1
  17    9   10 ar
  18    9   34 1
  19   11   13 1
  20   12   13 1
  21   12   16 am
  22   12   20 1
  23   13   14 1
  24   13   35 1
  25   14   15 2
  26   14   19 1
  27   15   16 1
  28   15   18 1
  29   16   17 2
  30   18   36 1
  31   18   37 1
  32   18   38 1
  33   19   39 1
  34   19   40 1
  35   19   41 1
  36   20   21 1
  37   20   42 1
  38   20   43 1
  39   21   22 ar
  40   21   26 ar
  41   22   23 ar
  42   22   44 1
  43   23   24 ar
  44   23   45 1
  45   24   25 ar
  46   24   27 1
  47   25   26 ar
  48   25   46 1
  49   26   47 1

#	End of record

