#	Name: ASD01913622
#	Creating user name:	WinNT
#	Creation time:	15. 06. 2019 20:01

#	Modifying user name:	WinNT
#	Modification time:	15. 06. 2019 20:01

#	Program:	/corina/corina34_cracker 3.40 0067  02.08.2006

@<TRIPOS>MOLECULE
ASD01913622
  61   65    0    0    0
SMALL
NO_CHARGES


@<TRIPOS>ATOM
   1 C1             0.0893     1.4552     0.3129 C.ar    
   2 C2             0.0486    -0.0128     0.1334 C.2     
   3 N3            -1.0124    -0.8155     0.3819 N.pl3   
   4 N4            -0.6023    -2.1226     0.0732 N.2     
   5 C5             0.6466    -2.0460    -0.3334 C.2     
   6 N6             1.0362    -0.7667    -0.3013 N.2     
   7 C7             1.4851    -3.1923    -0.7638 C.ar    
   8 C8             2.7996    -2.9809    -1.1746 C.ar    
   9 C9             3.5759    -4.0496    -1.5736 C.ar    
  10 C10            3.0500    -5.3313    -1.5662 C.ar    
  11 C11            1.7432    -5.5459    -1.1589 C.ar    
  12 C12            0.9618    -4.4836    -0.7529 C.ar    
  13 C13           -2.3283    -0.4024     0.8757 C.3     
  14 C14           -3.2439    -0.1410    -0.2924 C.2     
  15 N15           -4.5146     0.2533    -0.0776 N.am    
  16 O16           -2.8371    -0.2855    -1.4259 O.2     
  17 C17           -4.9679     0.4164     1.3002 C.3     
  18 C18            1.3144     2.1122     0.4321 C.ar    
  19 C19            1.3470     3.4808     0.5987 C.ar    
  20 C20            0.1655     4.2035     0.6478 C.ar    
  21 C21           -1.0540     3.5557     0.5303 C.ar    
  22 C22           -1.0971     2.1881     0.3576 C.ar    
  23 F23            3.8135    -6.3749    -1.9576 F       
  24 F24            0.2026     5.5441     0.8112 F       
  25 C25           -5.2941     1.8897     1.5674 C.3     
  26 C26           -6.6749     2.1863     1.0251 C.ar    
  27 C27           -6.8910     2.2287    -0.3319 C.ar    
  28 C28           -5.7503     1.9811    -1.2940 C.3     
  29 C29           -5.3696     0.5025    -1.2341 C.3     
  30 C30           -7.7164     2.4150     1.9097 C.ar    
  31 C31           -8.9811     2.6864     1.4296 C.ar    
  32 C32           -9.2076     2.7296     0.0526 C.ar    
  33 C33           -8.1504     2.4980    -0.8302 C.ar    
  34 C34          -10.5595     3.0186    -0.4682 C.2     
  35 O35          -11.5771     3.2411     0.3860 O.3     
  36 O36          -10.7535     3.0555    -1.6668 O.2     
  37 C37          -12.8779     3.5188    -0.1963 C.3     
  38 H38            3.2102    -1.9820    -1.1811 H       
  39 H39            4.5948    -3.8866    -1.8925 H       
  40 H40            1.3371    -6.5466    -1.1549 H       
  41 H41           -0.0567    -4.6518    -0.4355 H       
  42 H42           -2.7483    -1.1939     1.4965 H       
  43 H43           -2.2253     0.5073     1.4672 H       
  44 H44           -5.8607    -0.1876     1.4619 H       
  45 H45           -4.1821     0.0898     1.9813 H       
  46 H46            2.2357     1.5498     0.3943 H       
  47 H47            2.2948     3.9902     0.6915 H       
  48 H48           -1.9720     4.1233     0.5696 H       
  49 H49           -2.0479     1.6841     0.2658 H       
  50 H50           -5.2740     2.0799     2.6405 H       
  51 H51           -4.5611     2.5230     1.0676 H       
  52 H52           -6.0632     2.2379    -2.3060 H       
  53 H53           -4.8923     2.5897    -1.0084 H       
  54 H54           -4.8367     0.2282    -2.1445 H       
  55 H55           -6.2730    -0.1012    -1.1478 H       
  56 H56           -7.5385     2.3806     2.9744 H       
  57 H57           -9.7943     2.8647     2.1175 H       
  58 H58           -8.3169     2.5297    -1.8969 H       
  59 H59          -12.8150     4.4131    -0.8162 H       
  60 H60          -13.1896     2.6730    -0.8092 H       
  61 H61          -13.6055     3.6786     0.5993 H       
@<TRIPOS>BOND
   1    1    2 1
   2    1   18 ar
   3    1   22 ar
   4    2    3 1
   5    2    6 2
   6    3    4 1
   7    3   13 1
   8    4    5 2
   9    5    6 1
  10    5    7 1
  11    7    8 ar
  12    7   12 ar
  13    8    9 ar
  14    8   38 1
  15    9   10 ar
  16    9   39 1
  17   10   11 ar
  18   10   23 1
  19   11   12 ar
  20   11   40 1
  21   12   41 1
  22   13   14 1
  23   13   42 1
  24   13   43 1
  25   14   15 am
  26   14   16 2
  27   15   17 1
  28   15   29 1
  29   17   25 1
  30   17   44 1
  31   17   45 1
  32   18   19 ar
  33   18   46 1
  34   19   20 ar
  35   19   47 1
  36   20   21 ar
  37   20   24 1
  38   21   22 ar
  39   21   48 1
  40   22   49 1
  41   25   26 1
  42   25   50 1
  43   25   51 1
  44   26   27 ar
  45   26   30 ar
  46   27   28 1
  47   27   33 ar
  48   28   29 1
  49   28   52 1
  50   28   53 1
  51   29   54 1
  52   29   55 1
  53   30   31 ar
  54   30   56 1
  55   31   32 ar
  56   31   57 1
  57   32   33 ar
  58   32   34 1
  59   33   58 1
  60   34   35 1
  61   34   36 2
  62   35   37 1
  63   37   59 1
  64   37   60 1
  65   37   61 1

#	End of record

