#	Name: ASD03731427
#	Creating user name:	WinNT
#	Creation time:	15. 06. 2019 20:45

#	Modifying user name:	WinNT
#	Modification time:	15. 06. 2019 20:45

#	Program:	/corina/corina34_cracker 3.40 0067  02.08.2006

@<TRIPOS>MOLECULE
ASD03731427
  64   69    0    0    0
SMALL
NO_CHARGES


@<TRIPOS>ATOM
   1 O1             1.6556     2.6470    -1.9046 O.3     
   2 C2             1.9002     1.2609    -2.2079 C.3     
   3 O3             3.1928     1.2719    -2.8417 O.3     
   4 C4             3.8363     2.3674    -2.3409 C.ar    
   5 C5             2.8906     3.2130    -1.7658 C.ar    
   6 C6             5.1748     2.7164    -2.3285 C.ar    
   7 C7             5.5864     3.9111    -1.7455 C.ar    
   8 C8             4.6314     4.7516    -1.1815 C.ar    
   9 C9             3.2968     4.4034    -1.1867 C.ar    
  10 O10            6.8409     4.4294    -1.6127 O.3     
  11 C11            5.3716     5.9572    -0.6669 C.3     
  12 C12            6.7454     5.8411    -1.3414 C.3     
  13 N13            4.4342     7.8787     0.1412 N.am    
  14 C14            4.6807     7.2423    -1.0213 C.2     
  15 C15            5.4813     5.9638     0.8290 C.ar    
  16 C16            6.0079     5.0839     1.7481 C.ar    
  17 C17            5.9570     5.3798     3.0986 C.ar    
  18 C18            5.3762     6.5610     3.5229 C.ar    
  19 C19            4.8466     7.4453     2.6063 C.ar    
  20 C20            4.8936     7.1558     1.2448 C.ar    
  21 O21            4.3999     7.6317    -2.1351 O.2     
  22 C22            3.7634     9.1777     0.2362 C.3     
  23 C23            2.2538     8.9639     0.3638 C.3     
  24 C24            1.5533    10.3205     0.4630 C.3     
  25 N25            0.1038    10.1153     0.5855 N.3     
  26 C26           -0.6032    11.3992     0.6833 C.3     
  27 C27           -2.1067    11.1452     0.8093 C.3     
  28 N28           -4.3162    12.2629     0.8552 N.3     
  29 C29           -2.8471    12.4830     0.8650 C.3     
  30 C30           -2.5695    13.1966     2.2055 C.3     
  31 C31           -3.9041    13.8710     2.5844 C.3     
  32 C32           -4.8758    13.5082     1.4409 C.3     
  33 C33           -4.8087    12.0573    -0.5134 C.3     
  34 H34            1.9271     0.6678    -1.2937 H       
  35 H35            1.1419     0.8788    -2.8912 H       
  36 H36            5.9052     2.0573    -2.7740 H       
  37 H37            2.5668     5.0610    -0.7385 H       
  38 H38            7.5375     6.1596    -0.6638 H       
  39 H39            6.7719     6.4159    -2.2672 H       
  40 H40            6.4606     4.1618     1.4144 H       
  41 H41            6.3696     4.6898     3.8198 H       
  42 H42            5.3368     6.7921     4.5771 H       
  43 H43            4.3940     8.3653     2.9456 H       
  44 H44            4.1300     9.7127     1.1123 H       
  45 H45            3.9733     9.7613    -0.6601 H       
  46 H46            1.8873     8.4289    -0.5122 H       
  47 H47            2.0440     8.3803     1.2601 H       
  48 H48            1.9198    10.8555     1.3391 H       
  49 H49            1.7631    10.9042    -0.4333 H       
  50 H50           -0.2497     9.5654    -0.1830 H       
  51 H51           -0.2516    11.9418     1.5609 H       
  52 H52           -0.4083    11.9904    -0.2115 H       
  53 H53           -2.4522    10.5743    -0.0526 H       
  54 H54           -2.3049    10.5820     1.7212 H       
  55 H55           -2.5518    13.1151     0.0275 H       
  56 H56           -2.2817    12.4722     2.9675 H       
  57 H57           -1.7884    13.9465     2.0806 H       
  58 H58           -4.2713    13.4777     3.5324 H       
  59 H59           -3.7781    14.9520     2.6455 H       
  60 H60           -4.8983    14.3025     0.6948 H       
  61 H61           -5.8758    13.3271     1.8349 H       
  62 H62           -4.3943    11.1319    -0.9135 H       
  63 H63           -5.8968    11.9933    -0.5023 H       
  64 H64           -4.5004    12.8942    -1.1400 H       
@<TRIPOS>BOND
   1    1    2 1
   2    1    5 1
   3    2    3 1
   4    2   34 1
   5    2   35 1
   6    3    4 1
   7    4    5 ar
   8    4    6 ar
   9    5    9 ar
  10    6    7 ar
  11    6   36 1
  12    7    8 ar
  13    7   10 1
  14    8    9 ar
  15    8   11 1
  16    9   37 1
  17   10   12 1
  18   11   12 1
  19   11   14 1
  20   11   15 1
  21   12   38 1
  22   12   39 1
  23   13   14 am
  24   13   20 1
  25   13   22 1
  26   14   21 2
  27   15   16 ar
  28   15   20 ar
  29   16   17 ar
  30   16   40 1
  31   17   18 ar
  32   17   41 1
  33   18   19 ar
  34   18   42 1
  35   19   20 ar
  36   19   43 1
  37   22   23 1
  38   22   44 1
  39   22   45 1
  40   23   24 1
  41   23   46 1
  42   23   47 1
  43   24   25 1
  44   24   48 1
  45   24   49 1
  46   25   26 1
  47   25   50 1
  48   26   27 1
  49   26   51 1
  50   26   52 1
  51   27   29 1
  52   27   53 1
  53   27   54 1
  54   28   29 1
  55   28   32 1
  56   28   33 1
  57   29   30 1
  58   29   55 1
  59   30   31 1
  60   30   56 1
  61   30   57 1
  62   31   32 1
  63   31   58 1
  64   31   59 1
  65   32   60 1
  66   32   61 1
  67   33   62 1
  68   33   63 1
  69   33   64 1

#	End of record

