#	Name: ASD01901497
#	Creating user name:	WinNT
#	Creation time:	15. 06. 2019 19:53

#	Modifying user name:	WinNT
#	Modification time:	15. 06. 2019 19:53

#	Program:	/corina/corina34_cracker 3.40 0067  02.08.2006

@<TRIPOS>MOLECULE
ASD01901497
  39   42    0    0    0
SMALL
NO_CHARGES


@<TRIPOS>ATOM
   1 C1             0.9179    -0.1602     1.0425 C.ar    
   2 C2             2.0974     0.5550     1.0329 C.ar    
   3 C3             2.3759     1.4221    -0.0117 C.ar    
   4 C4             1.4718     1.5750    -1.0503 C.ar    
   5 C5             0.2895     0.8636    -1.0489 C.ar    
   6 C6             0.0055    -0.0098    -0.0007 C.ar    
   7 C7            -1.2639    -0.7771     0.0050 C.2     
   8 N8            -2.3545    -2.8751    -0.0976 N.2     
   9 C9            -1.2421    -2.1846    -0.1012 C.2     
  10 N10           -2.4175    -0.1480     0.1146 N.2     
  11 N11           -3.6007    -0.8966     0.1178 N.pl3   
  12 C12           -3.5419    -2.2651     0.0073 C.2     
  13 C13           -4.9170    -0.5560     0.2133 C.2     
  14 C14           -5.6308    -1.7042     0.1606 C.2     
  15 N15           -4.7837    -2.7279     0.0345 N.2     
  16 C16           -7.1325    -1.8095     0.2307 C.3     
  17 O17           -7.6960    -0.5030     0.3625 O.3     
  18 C18           -9.0485    -0.4201     0.4396 C.ar    
  19 C19           -9.6545     0.8225     0.5686 C.ar    
  20 N20           -9.7758    -1.5233     0.3856 N.ar    
  21 C21          -11.0929    -1.4891     0.4568 C.ar    
  22 C22          -11.7637    -0.2872     0.5915 C.ar    
  23 C23          -11.0347     0.8945     0.6463 C.ar    
  24 C24            0.6190    -1.1075     2.1758 C.3     
  25 F25            3.5323     2.1206    -0.0171 F       
  26 F26          -13.1126    -0.2619     0.6632 F       
  27 H27            2.8046     0.4393     1.8408 H       
  28 H28            1.6925     2.2524    -1.8620 H       
  29 H29           -0.4147     0.9835    -1.8589 H       
  30 H30           -0.2959    -2.6983    -0.1868 H       
  31 H31           -5.3154     0.4428     0.3131 H       
  32 H32           -7.5069    -2.2765    -0.6803 H       
  33 H33           -7.4144    -2.4154     1.0918 H       
  34 H34           -9.0568     1.7211     0.6082 H       
  35 H35          -11.6539    -2.4107     0.4089 H       
  36 H36          -11.5334     1.8471     0.7471 H       
  37 H37            0.9239    -2.1160     1.8964 H       
  38 H38            1.1674    -0.7952     3.0645 H       
  39 H39           -0.4505    -1.0963     2.3861 H       
@<TRIPOS>BOND
   1    1    6 ar
   2    1    2 ar
   3    1   24 1
   4    2    3 ar
   5    2   27 1
   6    3    4 ar
   7    3   25 1
   8    4    5 ar
   9    4   28 1
  10    5    6 ar
  11    5   29 1
  12    6    7 1
  13    7   10 2
  14    7    9 1
  15    8    9 2
  16    8   12 1
  17    9   30 1
  18   10   11 1
  19   11   13 1
  20   11   12 1
  21   12   15 2
  22   13   14 2
  23   13   31 1
  24   14   15 1
  25   14   16 1
  26   16   17 1
  27   16   32 1
  28   16   33 1
  29   17   18 1
  30   18   19 ar
  31   18   20 ar
  32   19   23 ar
  33   19   34 1
  34   20   21 ar
  35   21   22 ar
  36   21   35 1
  37   22   23 ar
  38   22   26 1
  39   23   36 1
  40   24   37 1
  41   24   38 1
  42   24   39 1

#	End of record

