#	Name: ASD01880278
#	Creating user name:	WinNT
#	Creation time:	15. 06. 2019 19:40

#	Modifying user name:	WinNT
#	Modification time:	15. 06. 2019 19:40

#	Program:	/corina/corina34_cracker 3.40 0067  02.08.2006

@<TRIPOS>MOLECULE
ASD01880278
  44   47    0    0    0
SMALL
NO_CHARGES


@<TRIPOS>ATOM
   1 C1            -0.0180     1.4798     0.0102 C.ar    
   2 C2             0.0021    -0.0041     0.0020 C.2     
   3 C3            -0.4771    -0.7020     1.0725 C.2     
   4 N4            -0.4626    -2.0582     1.0736 N.am    
   5 C5             0.0235    -2.7446     0.0227 C.2     
   6 C6             0.5262    -2.0618    -1.0989 C.2     
   7 C7             0.5116    -0.7001    -1.1154 C.2     
   8 O8             0.0284    -3.9649     0.0438 O.2     
   9 C9            -0.9824    -2.7857     2.2341 C.3     
  10 C10            1.1784     2.1943     0.0026 C.ar    
  11 C11            1.1565     3.5734     0.0097 C.ar    
  12 C12           -0.0556     4.2496     0.0249 C.ar    
  13 C13           -1.2490     3.5407     0.0330 C.ar    
  14 C14           -1.2335     2.1615     0.0196 C.ar    
  15 O15           -0.0740     5.6085     0.0324 O.3     
  16 C16           -1.3559     6.2399     0.0480 C.3     
  17 C17           -2.4538    -3.0495     2.0438 C.2     
  18 O18           -3.4587    -2.2549     2.4253 O.3     
  19 N19           -4.5216    -2.7556     2.1243 N.2     
  20 C20           -4.3250    -3.9031     1.5285 C.2     
  21 N21           -2.9882    -4.0977     1.4684 N.2     
  22 C22           -5.3725    -4.8176     1.0106 C.ar    
  23 C23           -6.7189    -4.4816     1.1384 C.ar    
  24 C24           -7.6895    -5.3345     0.6551 C.ar    
  25 C25           -7.3273    -6.5240     0.0437 C.ar    
  26 C26           -5.9897    -6.8620    -0.0855 C.ar    
  27 C27           -5.0125    -6.0122     0.3898 C.ar    
  28 F28           -8.2811    -7.3569    -0.4275 F       
  29 H29           -0.8708    -0.1700     1.9259 H       
  30 H30            0.9165    -2.6125    -1.9419 H       
  31 H31            0.8933    -0.1595    -1.9689 H       
  32 H32           -0.4535    -3.7334     2.3356 H       
  33 H33           -0.8337    -2.1885     3.1337 H       
  34 H34            2.1218     1.6687    -0.0085 H       
  35 H35            2.0834     4.1277     0.0039 H       
  36 H36           -2.1906     4.0695     0.0451 H       
  37 H37           -2.1623     1.6104     0.0259 H       
  38 H38           -1.2278     7.3223     0.0525 H       
  39 H39           -1.9174     5.9442    -0.8383 H       
  40 H40           -1.9004     5.9347     0.9416 H       
  41 H41           -7.0021    -3.5549     1.6155 H       
  42 H42           -8.7332    -5.0748     0.7537 H       
  43 H43           -5.7117    -7.7903    -0.5624 H       
  44 H44           -3.9702    -6.2762     0.2884 H       
@<TRIPOS>BOND
   1    1    2 1
   2    1   10 ar
   3    1   14 ar
   4    2    3 2
   5    2    7 1
   6    3    4 1
   7    3   29 1
   8    4    5 am
   9    4    9 1
  10    5    6 1
  11    5    8 2
  12    6    7 2
  13    6   30 1
  14    7   31 1
  15    9   17 1
  16    9   32 1
  17    9   33 1
  18   10   11 ar
  19   10   34 1
  20   11   12 ar
  21   11   35 1
  22   12   13 ar
  23   12   15 1
  24   13   14 ar
  25   13   36 1
  26   14   37 1
  27   15   16 1
  28   16   38 1
  29   16   39 1
  30   16   40 1
  31   17   18 1
  32   17   21 2
  33   18   19 1
  34   19   20 2
  35   20   21 1
  36   20   22 1
  37   22   23 ar
  38   22   27 ar
  39   23   24 ar
  40   23   41 1
  41   24   25 ar
  42   24   42 1
  43   25   26 ar
  44   25   28 1
  45   26   27 ar
  46   26   43 1
  47   27   44 1

#	End of record

