#	Name: ASD01180195
#	Creating user name:	WinNT
#	Creation time:	15. 06. 2019 19:06

#	Modifying user name:	WinNT
#	Modification time:	15. 06. 2019 19:06

#	Program:	/corina/corina34_cracker 3.40 0067  02.08.2006

@<TRIPOS>MOLECULE
ASD01180195
  65   67    0    0    0
SMALL
NO_CHARGES


@<TRIPOS>ATOM
   1 C1            -0.6582     1.2473     0.5915 C.ar    
   2 C2            -0.5557    -0.1301     0.4886 C.ar    
   3 C3            -1.7068    -0.9137     0.5094 C.ar    
   4 C4            -2.9553    -0.3076     0.6336 C.ar    
   5 C5            -3.0485     1.0662     0.7356 C.ar    
   6 C6            -1.9055     1.8431     0.7202 C.ar    
   7 C7            -1.6041    -2.3900     0.3992 C.ar    
   8 C8            -2.7554    -3.1745     0.4199 C.ar    
   9 C9            -2.6541    -4.5471     0.3165 C.ar    
  10 C10           -1.4124    -5.1441     0.1930 C.ar    
  11 C11           -0.2662    -4.3701     0.1723 C.ar    
  12 C12           -0.3564    -2.9963     0.2687 C.ar    
  13 C13           -1.3081    -6.6433     0.0810 C.3     
  14 C14           -1.1165    -7.0330    -1.3861 C.3     
  15 N15           -0.1629    -7.1130     0.8646 N.pl3   
  16 C16           -0.1663    -8.3907     1.3980 C.ar    
  17 N17            0.8160    -8.7642     2.2067 N.ar    
  18 C18            0.8538    -9.9689     2.7369 C.ar    
  19 C19           -0.1503   -10.8974     2.4591 C.ar    
  20 C20           -1.2023   -10.5288     1.6063 C.ar    
  21 C21           -1.2054    -9.2646     1.0820 C.ar    
  22 C22           -0.1065   -12.2473     3.0530 C.2     
  23 N23            0.9085   -12.5912     3.8704 N.am    
  24 O24           -0.9859   -13.0495     2.8050 O.2     
  25 C25            0.9520   -13.9316     4.4601 C.3     
  26 C26            2.1968   -14.0613     5.3403 C.3     
  27 C27            2.2416   -15.4401     5.9469 C.2     
  28 O28            3.2524   -15.7827     6.7609 O.3     
  29 O29            1.3676   -16.2372     5.7005 O.2     
  30 C30           -2.3760    -6.6752    -2.1775 C.3     
  31 C31           -2.1363    -6.9407    -3.6651 C.3     
  32 C32           -3.5460    -7.5315    -1.6887 C.3     
  33 O33            0.4629     2.0154     0.5720 O.3     
  34 C34            0.2830     3.4287     0.6824 C.3     
  35 H35            0.4143    -0.5952     0.3922 H       
  36 H36           -3.8501    -0.9123     0.6497 H       
  37 H37           -4.0168     1.5346     0.8318 H       
  38 H38           -1.9835     2.9173     0.8003 H       
  39 H39           -3.7253    -2.7095     0.5171 H       
  40 H40           -3.5458    -5.1562     0.3325 H       
  41 H41            0.7008    -4.8415     0.0763 H       
  42 H42            0.5392    -2.3929     0.2521 H       
  43 H43           -2.2212    -7.1006     0.4621 H       
  44 H44           -0.2635    -6.4930    -1.7971 H       
  45 H45           -0.9357    -8.1056    -1.4565 H       
  46 H46            0.5978    -6.5289     1.0097 H       
  47 H47            1.6686   -10.2407     3.3917 H       
  48 H48           -1.9937   -11.2255     1.3726 H       
  49 H49           -2.0006    -8.9500     0.4225 H       
  50 H50            1.6101   -11.9513     4.0682 H       
  51 H51            0.0602   -14.0911     5.0661 H       
  52 H52            0.9895   -14.6770     3.6657 H       
  53 H53            3.0886   -13.9019     4.7342 H       
  54 H54            2.1593   -13.3159     6.1347 H       
  55 H55            3.2380   -16.6780     7.1259 H       
  56 H56           -2.6107    -5.6210    -2.0298 H       
  57 H57           -1.9016    -7.9948    -3.8128 H       
  58 H58           -3.0336    -6.6857    -4.2290 H       
  59 H59           -1.3028    -6.3307    -4.0133 H       
  60 H60           -4.4185    -7.3461    -2.3151 H       
  61 H61           -3.2741    -8.5854    -1.7471 H       
  62 H62           -3.7788    -7.2730    -0.6557 H       
  63 H63            1.2545     3.9220     0.6535 H       
  64 H64           -0.3292     3.7829    -0.1470 H       
  65 H65           -0.2136     3.6592     1.6249 H       
@<TRIPOS>BOND
   1    1    2 ar
   2    1   33 1
   3    1    6 ar
   4    2    3 ar
   5    2   35 1
   6    3    4 ar
   7    3    7 1
   8    4    5 ar
   9    4   36 1
  10    5    6 ar
  11    5   37 1
  12    6   38 1
  13    7    8 ar
  14    7   12 ar
  15    8    9 ar
  16    8   39 1
  17    9   10 ar
  18    9   40 1
  19   10   11 ar
  20   10   13 1
  21   11   12 ar
  22   11   41 1
  23   12   42 1
  24   13   14 1
  25   13   15 1
  26   13   43 1
  27   14   30 1
  28   14   44 1
  29   14   45 1
  30   15   16 1
  31   15   46 1
  32   16   17 ar
  33   16   21 ar
  34   17   18 ar
  35   18   19 ar
  36   18   47 1
  37   19   20 ar
  38   19   22 1
  39   20   21 ar
  40   20   48 1
  41   21   49 1
  42   22   23 am
  43   22   24 2
  44   23   25 1
  45   23   50 1
  46   25   26 1
  47   25   51 1
  48   25   52 1
  49   26   27 1
  50   26   53 1
  51   26   54 1
  52   27   28 1
  53   27   29 2
  54   28   55 1
  55   30   31 1
  56   30   32 1
  57   30   56 1
  58   31   57 1
  59   31   58 1
  60   31   59 1
  61   32   60 1
  62   32   61 1
  63   32   62 1
  64   33   34 1
  65   34   63 1
  66   34   64 1
  67   34   65 1

#	End of record

