#	Name: ASD01940074
#	Creating user name:	WinNT
#	Creation time:	15. 06. 2019 20:11

#	Modifying user name:	WinNT
#	Modification time:	15. 06. 2019 20:11

#	Program:	/corina/corina34_cracker 3.40 0067  02.08.2006

@<TRIPOS>MOLECULE
ASD01940074
  35   36    0    0    0
SMALL
NO_CHARGES


@<TRIPOS>ATOM
   1 C1             1.0019     1.3498    -0.0457 C.3     
   2 F2            -2.0492    -4.7801     0.2852 F       
   3 C3            -1.1661    -5.2213     1.2076 C.ar    
   4 C4             0.1927    -4.9960     1.0322 C.ar    
   5 C5             1.1000    -5.4532     1.9866 C.ar    
   6 C6             0.6417    -6.1306     3.1066 C.ar    
   7 C7            -0.7126    -6.3521     3.2760 C.ar    
   8 C8            -1.6162    -5.8941     2.3324 C.ar    
   9 N9             0.6510    -4.3112    -0.1018 N.pl3   
  10 N10            2.4725    -5.2290     1.8145 N.am    
  11 C11            0.7375    -2.9167    -0.0883 C.ar    
  12 C12            0.4155    -2.2104     1.0633 C.ar    
  13 C13            0.5017    -0.8317     1.0733 C.ar    
  14 C14            0.9088    -0.1543    -0.0612 C.ar    
  15 C15            1.2305    -0.8537    -1.2104 C.ar    
  16 C16            1.1518    -2.2329    -1.2261 C.ar    
  17 Cl17           1.5557    -3.1103    -2.6686 Cl      
  18 F18           -2.9388    -6.1083     2.5056 F       
  19 S19            3.5662    -6.3696     2.3097 S.o2    
  20 O20            4.8236    -5.8516     1.8975 O.2     
  21 O21            3.2699    -6.5651     3.6857 O.2     
  22 C22            3.1422    -7.8498     1.3507 C.3     
  23 F23            3.2610    -7.5705    -0.0150 F       
  24 F24            4.0122    -8.8911     1.6911 F       
  25 F25            1.8263    -8.2294     1.6362 F       
  26 H26            2.0012     1.6487     0.2706 H       
  27 H27            0.8066     1.7362    -1.0460 H       
  28 H28            0.2651     1.7523     0.6495 H       
  29 H29            1.3433    -6.4858     3.8469 H       
  30 H30           -1.0669    -6.8799     4.1491 H       
  31 H31            0.9080    -4.8054    -0.8960 H       
  32 H32            2.7819    -4.4058     1.4053 H       
  33 H33            0.0973    -2.7385     1.9501 H       
  34 H34            0.2513    -0.2822     1.9687 H       
  35 H35            1.5475    -0.3213    -2.0949 H       
@<TRIPOS>BOND
   1    1   14 1
   2    1   26 1
   3    1   27 1
   4    1   28 1
   5    2    3 1
   6    3    4 ar
   7    3    8 ar
   8    4    5 ar
   9    4    9 1
  10    5    6 ar
  11    5   10 1
  12    6    7 ar
  13    6   29 1
  14    7    8 ar
  15    7   30 1
  16    8   18 1
  17    9   11 1
  18    9   31 1
  19   10   19 am
  20   10   32 1
  21   11   12 ar
  22   11   16 ar
  23   12   13 ar
  24   12   33 1
  25   13   14 ar
  26   13   34 1
  27   14   15 ar
  28   15   16 ar
  29   15   35 1
  30   16   17 1
  31   19   20 2
  32   19   21 2
  33   19   22 1
  34   22   23 1
  35   22   24 1
  36   22   25 1

#	End of record

