#	Name: ASD01840535
#	Creating user name:	WinNT
#	Creation time:	15. 06. 2019 19:37

#	Modifying user name:	WinNT
#	Modification time:	15. 06. 2019 19:37

#	Program:	/corina/corina34_cracker 3.40 0067  02.08.2006

@<TRIPOS>MOLECULE
ASD01840535
  53   57    0    0    0
SMALL
NO_CHARGES


@<TRIPOS>ATOM
   1 C1            -0.0127     1.0858     0.0080 C.3     
   2 H2             0.0021    -0.0041     0.0020 H       
   3 H3             1.0099     1.4631     0.0003 H       
   4 H4            -0.5399     1.4469    -0.8751 H       
   5 N5            -0.6984     1.5583     1.2133 N.am    
   6 C6            -0.9231     2.9628     1.5732 C.3     
   7 C7            -1.6636     2.9491     2.8876 C.ar    
   8 C8            -2.1411     3.9461     3.7082 C.ar    
   9 C9            -2.7970     3.6243     4.8819 C.ar    
  10 C10           -2.9769     2.2876     5.2381 C.ar    
  11 C11           -2.4957     1.2758     4.4124 C.ar    
  12 C12           -1.8354     1.6044     3.2297 C.ar    
  13 C13           -1.2302     0.7763     2.1684 C.2     
  14 O14           -1.2129    -0.4391     2.1605 O.2     
  15 C15           -3.6804     1.9446     6.4969 C.ar    
  16 N16           -4.4435     0.8662     6.5489 N.ar    
  17 C17           -5.0902     0.5236     7.6567 C.ar    
  18 C18           -4.9873     1.2960     8.8155 C.ar    
  19 C19           -4.1998     2.4323     8.8056 C.ar    
  20 C20           -3.5262     2.7660     7.6287 C.ar    
  21 C21           -2.6659     3.9709     7.5711 C.2     
  22 C22           -1.3431     4.0285     7.0867 C.2     
  23 N23           -0.9234     5.2603     7.1998 N.2     
  24 N24           -1.9507     6.0323     7.7554 N.pl3   
  25 C25           -1.8852     7.4667     8.0461 C.3     
  26 C26           -0.6798     7.7505     8.9446 C.3     
  27 C27            0.6401     7.5619     8.1565 C.3     
  28 C28            1.6415     8.4348     8.9530 C.3     
  29 C29            0.8168     9.6690     9.3730 C.3     
  30 C30           -0.6592     9.2339     9.3677 C.3     
  31 C31           -3.0116     5.2305     7.9722 C.2     
  32 C32           -5.9049    -0.6541     7.6632 C.1     
  33 N33           -6.5512    -1.5883     7.6683 N.1     
  34 H34            0.0309     3.4777     1.6862 H       
  35 H35           -1.5258     3.4534     0.8089 H       
  36 H36           -2.0027     4.9817     3.4346 H       
  37 H37           -3.1702     4.4086     5.5238 H       
  38 H38           -2.6334     0.2404     4.6869 H       
  39 H39           -5.5181     1.0086     9.7110 H       
  40 H40           -4.1047     3.0460     9.6893 H       
  41 H41           -0.7758     3.1988     6.6915 H       
  42 H42           -1.7822     8.0220     7.1138 H       
  43 H43           -2.7983     7.7764     8.5545 H       
  44 H44           -0.6985     7.1039     9.8219 H       
  45 H45            0.9483     6.5164     8.1637 H       
  46 H46            0.5359     7.9280     7.1352 H       
  47 H47            2.0001     7.8986     9.8316 H       
  48 H48            2.4769     8.7319     8.3190 H       
  49 H49            1.1079     9.9898    10.3732 H       
  50 H50            0.9695    10.4800     8.6610 H       
  51 H51           -1.2227     9.8338     8.6532 H       
  52 H52           -1.0844     9.3436    10.3653 H       
  53 H53           -3.9619     5.5288     8.3896 H       
@<TRIPOS>BOND
   1    1    2 1
   2    1    3 1
   3    1    4 1
   4    1    5 1
   5    5   13 am
   6    5    6 1
   7    6    7 1
   8    6   34 1
   9    6   35 1
  10    7   12 ar
  11    7    8 ar
  12    8    9 ar
  13    8   36 1
  14    9   10 ar
  15    9   37 1
  16   10   11 ar
  17   10   15 1
  18   11   12 ar
  19   11   38 1
  20   12   13 1
  21   13   14 2
  22   15   20 ar
  23   15   16 ar
  24   16   17 ar
  25   17   18 ar
  26   17   32 1
  27   18   19 ar
  28   18   39 1
  29   19   20 ar
  30   19   40 1
  31   20   21 1
  32   21   31 2
  33   21   22 1
  34   22   23 2
  35   22   41 1
  36   23   24 1
  37   24   25 1
  38   24   31 1
  39   25   26 1
  40   25   42 1
  41   25   43 1
  42   26   30 1
  43   26   27 1
  44   26   44 1
  45   27   28 1
  46   27   45 1
  47   27   46 1
  48   28   29 1
  49   28   47 1
  50   28   48 1
  51   29   30 1
  52   29   49 1
  53   29   50 1
  54   30   51 1
  55   30   52 1
  56   31   53 1
  57   32   33 3

#	End of record

