#	Name: ASD01810018
#	Creating user name:	WinNT
#	Creation time:	15. 06. 2019 19:23

#	Modifying user name:	WinNT
#	Modification time:	15. 06. 2019 19:23

#	Program:	/corina/corina34_cracker 3.40 0067  02.08.2006

@<TRIPOS>MOLECULE
ASD01810018
  38   42    0    0    0
SMALL
NO_CHARGES


@<TRIPOS>ATOM
   1 N1            -0.0163     1.3479     0.0095 N.am    
   2 C2             0.0021    -0.0041     0.0020 C.2     
   3 C3            -1.2675    -0.7372    -0.3573 C.3     
   4 C4            -2.5158    -0.1237     0.2723 C.3     
   5 C5            -2.5118     1.3732     0.1205 C.ar    
   6 C6            -1.2654     1.9809     0.0315 C.ar    
   7 C7            -3.6297     2.1617     0.0673 C.ar    
   8 C8            -3.5031     3.5493    -0.0498 C.ar    
   9 C9            -2.2644     4.1490    -0.0999 C.ar    
  10 C10           -1.1108     3.3591    -0.0516 C.ar    
  11 C11            0.9565     2.3074     0.0053 C.ar    
  12 C12            0.3354     3.5854    -0.0413 C.ar    
  13 C13            1.0842     4.7627    -0.0667 C.ar    
  14 C14            2.4501     4.6425    -0.0391 C.ar    
  15 C15            3.0757     3.3948     0.0124 C.ar    
  16 C16            2.3427     2.2032     0.0386 C.ar    
  17 C17           -4.7733     4.3582    -0.1247 C.3     
  18 N18           -4.5092     5.7655     0.1872 N.3     
  19 C19           -3.4210     6.2791    -0.6600 C.3     
  20 C20           -2.1093     5.6441    -0.1985 C.3     
  21 O21            1.0140    -0.6128     0.2770 O.2     
  22 C22            4.5061     3.3335     0.0420 C.1     
  23 N23            5.6408     3.2849     0.0655 N.1     
  24 H24           -1.3818    -0.7287    -1.4413 H       
  25 H25           -1.1803    -1.7717    -0.0252 H       
  26 H26           -3.4009    -0.5312    -0.2162 H       
  27 H27           -2.5439    -0.3765     1.3322 H       
  28 H28           -4.6103     1.7115     0.1155 H       
  29 H29            0.6069     5.7306    -0.1069 H       
  30 H30            3.0575     5.5353    -0.0579 H       
  31 H31            2.8334     1.2419     0.0786 H       
  32 H32           -5.1871     4.2847    -1.1304 H       
  33 H33           -5.4946     3.9612     0.5897 H       
  34 H34           -5.3439     6.3223     0.0806 H       
  35 H35           -3.6102     6.0155    -1.7005 H       
  36 H36           -3.3589     7.3628    -0.5608 H       
  37 H37           -1.8379     6.0445     0.7783 H       
  38 H38           -1.3221     5.8794    -0.9148 H       
@<TRIPOS>BOND
   1    1    2 am
   2    1   11 1
   3    1    6 1
   4    2    3 1
   5    2   21 2
   6    3    4 1
   7    3   24 1
   8    3   25 1
   9    4    5 1
  10    4   26 1
  11    4   27 1
  12    5    6 ar
  13    5    7 ar
  14    6   10 ar
  15    7    8 ar
  16    7   28 1
  17    8    9 ar
  18    8   17 1
  19    9   10 ar
  20    9   20 1
  21   10   12 1
  22   11   12 ar
  23   11   16 ar
  24   12   13 ar
  25   13   14 ar
  26   13   29 1
  27   14   15 ar
  28   14   30 1
  29   15   16 ar
  30   15   22 1
  31   16   31 1
  32   17   18 1
  33   17   32 1
  34   17   33 1
  35   18   19 1
  36   18   34 1
  37   19   20 1
  38   19   35 1
  39   19   36 1
  40   20   37 1
  41   20   38 1
  42   22   23 3

#	End of record

