#	Name: ASD01914191
#	Creating user name:	WinNT
#	Creation time:	15. 06. 2019 20:03

#	Modifying user name:	WinNT
#	Modification time:	15. 06. 2019 20:03

#	Program:	/corina/corina34_cracker 3.40 0067  02.08.2006

@<TRIPOS>MOLECULE
ASD01914191
  39   40    0    0    0
SMALL
NO_CHARGES


@<TRIPOS>ATOM
   1 C1            -0.0708     1.4760     0.0225 C.2     
   2 C2            -0.1488    -0.0004     0.0300 C.ar    
   3 C3             0.3206    -0.7328    -1.0618 C.ar    
   4 C4             0.2453    -2.1100    -1.0482 C.ar    
   5 C5            -0.2944    -2.7657     0.0443 C.ar    
   6 C6            -0.7613    -2.0460     1.1295 C.ar    
   7 C7            -0.6866    -0.6682     1.1311 C.ar    
   8 O8             0.9766     2.0279    -0.2530 O.2     
   9 N9            -1.1625     2.2100     0.3156 N.am    
  10 C10            0.9077    -0.0203    -2.2529 C.3     
  11 F11            1.3042    -0.9605    -3.2099 F       
  12 F12           -0.0535     0.8321    -2.8069 F       
  13 F13            2.0174     0.7291    -1.8476 F       
  14 C14           -1.0590     3.6676     0.4191 C.3     
  15 C15           -1.3193     4.2960    -0.9514 C.3     
  16 C16           -1.2153     5.7606    -0.8474 C.1     
  17 C17           -1.1324     6.9288    -0.7644 C.1     
  18 C18           -1.0312     8.3536    -0.6633 C.ar    
  19 C19           -1.2312     9.1440    -1.7957 C.ar    
  20 C20           -1.1300    10.5191    -1.6816 C.ar    
  21 C21           -0.8320    11.0611    -0.4389 C.ar    
  22 C22           -0.6459    10.2191     0.6420 C.ar    
  23 N23           -0.7530     8.9129     0.5087 N.ar    
  24 C24           -2.4526     1.5501     0.5308 C.3     
  25 H25            0.6080    -2.6778    -1.8923 H       
  26 H26           -0.3517    -3.8442     0.0497 H       
  27 H27           -1.1813    -2.5638     1.9791 H       
  28 H28           -1.0477    -0.1076     1.9807 H       
  29 H29           -1.7964     4.0345     1.1331 H       
  30 H30           -0.0590     3.9377     0.7586 H       
  31 H31           -0.5819     3.9291    -1.6653 H       
  32 H32           -2.3193     4.0259    -1.2908 H       
  33 H33           -1.4614     8.6889    -2.7476 H       
  34 H34           -1.2792    11.1567    -2.5404 H       
  35 H35           -0.7458    12.1308    -0.3174 H       
  36 H36           -0.4136    10.6384     1.6098 H       
  37 H37           -2.5226     1.2180     1.5666 H       
  38 H38           -3.2594     2.2518     0.3190 H       
  39 H39           -2.5359     0.6896    -0.1331 H       
@<TRIPOS>BOND
   1    1    2 1
   2    1    8 2
   3    1    9 am
   4    2    3 ar
   5    2    7 ar
   6    3    4 ar
   7    3   10 1
   8    4    5 ar
   9    4   25 1
  10    5    6 ar
  11    5   26 1
  12    6    7 ar
  13    6   27 1
  14    7   28 1
  15    9   14 1
  16    9   24 1
  17   10   11 1
  18   10   12 1
  19   10   13 1
  20   14   15 1
  21   14   29 1
  22   14   30 1
  23   15   16 1
  24   15   31 1
  25   15   32 1
  26   16   17 3
  27   17   18 1
  28   18   19 ar
  29   18   23 ar
  30   19   20 ar
  31   19   33 1
  32   20   21 ar
  33   20   34 1
  34   21   22 ar
  35   21   35 1
  36   22   23 ar
  37   22   36 1
  38   24   37 1
  39   24   38 1
  40   24   39 1

#	End of record

