#	Name: ASD01020005
#	Creating user name:	WinNT
#	Creation time:	15. 06. 2019 18:56

#	Modifying user name:	WinNT
#	Modification time:	15. 06. 2019 18:56

#	Program:	/corina/corina34_cracker 3.40 0067  02.08.2006

@<TRIPOS>MOLECULE
ASD01020005
  16   15    0    0    0
SMALL
NO_CHARGES


@<TRIPOS>ATOM
   1 N1            -0.0178     1.4648     0.0101 N.3     
   2 C2             0.0021    -0.0041     0.0020 C.3     
   3 C3             0.6205    -0.4910    -1.2831 C.2     
   4 C4             0.8260    -0.5095     1.1880 C.3     
   5 C5            -1.4289    -0.5341     0.1123 C.3     
   6 O6             1.6221     0.1998    -1.8499 O.3     
   7 O7             0.2147    -1.5033    -1.8033 O.2     
   8 H8             0.9191     1.8392     0.0032 H       
   9 H9            -0.5563     1.8234    -0.7642 H       
  10 H10            0.3787    -0.1573     2.1176 H       
  11 H11            0.8408    -1.5994     1.1820 H       
  12 H12            1.8454    -0.1318     1.1095 H       
  13 H13           -2.0159    -0.1741    -0.7326 H       
  14 H14           -1.4141    -1.6240     0.1063 H       
  15 H15           -1.8762    -0.1819     1.0418 H       
  16 H16            1.9868    -0.1517    -2.6736 H       
@<TRIPOS>BOND
   1    1    2 1
   2    1    8 1
   3    1    9 1
   4    2    3 1
   5    2    4 1
   6    2    5 1
   7    3    6 1
   8    3    7 2
   9    4   10 1
  10    4   11 1
  11    4   12 1
  12    5   13 1
  13    5   14 1
  14    5   15 1
  15    6   16 1

#	End of record

