#	Name: ASD03092366
#	Creating user name:	WinNT
#	Creation time:	15. 06. 2019 20:32

#	Modifying user name:	WinNT
#	Modification time:	15. 06. 2019 20:32

#	Program:	/corina/corina34_cracker 3.40 0067  02.08.2006

@<TRIPOS>MOLECULE
ASD03092366
  55   58    0    0    0
SMALL
NO_CHARGES


@<TRIPOS>ATOM
   1 O1             0.7341     1.4134     0.2835 O.3     
   2 N2             0.9083     0.2185     0.3400 N.2     
   3 C3             2.1721    -0.0910     0.3189 C.2     
   4 C4             2.8841     1.1262     0.2352 C.2     
   5 C5             1.9024     2.0790     0.2148 C.2     
   6 C6             2.0868     3.5403     0.1332 C.2     
   7 O7             3.2070     4.0094     0.0758 O.2     
   8 N8             1.0135     4.3554     0.1224 N.am    
   9 C9             2.7610    -1.4771     0.3740 C.3     
  10 C10            1.1966     5.8066     0.0414 C.3     
  11 S11           -2.3145     7.6018    -0.6273 S.3     
  12 C12           -1.9545     7.3535     1.0252 C.2     
  13 N13           -0.8018     6.7676     1.1522 N.2     
  14 C14           -0.1497     6.4838     0.0458 C.2     
  15 C15           -0.7878     6.8512    -1.0851 C.2     
  16 N16           -2.7729     7.7237     2.0767 N.3     
  17 C17           -4.0029     8.3631     1.5871 C.3     
  18 C18           -4.9042     8.7018     2.7775 C.3     
  19 O19           -4.1863     9.5368     3.6901 O.3     
  20 C20           -2.9830     8.9449     4.1873 C.3     
  21 C21           -2.0623     8.6086     3.0112 C.3     
  22 C22           -6.1496     9.4395     2.2817 C.3     
  23 C23            0.1544     7.4829    -4.6652 C.ar    
  24 C24           -0.3170     7.7079    -3.3900 C.ar    
  25 C25           -0.2942     6.6577    -2.4625 C.ar    
  26 C26            0.2110     5.4189    -2.8794 C.ar    
  27 C27            0.6618     5.2832    -4.1745 C.ar    
  28 N28            0.6221     6.2993    -5.0164 N.ar    
  29 C29            1.2080     3.9566    -4.6360 C.3     
  30 C30            0.1300     8.6016    -5.6747 C.3     
  31 H31            3.9537     1.2708     0.1966 H       
  32 H32            0.1198     3.9811     0.1682 H       
  33 H33            2.8732    -1.8647    -0.6386 H       
  34 H34            3.7368    -1.4383     0.8583 H       
  35 H35            2.0992    -2.1308     0.9420 H       
  36 H36            1.7778     6.1479     0.8980 H       
  37 H37            1.7254     6.0553    -0.8788 H       
  38 H38           -3.7492     9.2775     1.0509 H       
  39 H39           -4.5260     7.6807     0.9172 H       
  40 H40           -5.2016     7.7826     3.2820 H       
  41 H41           -2.4808     9.6462     4.8537 H       
  42 H42           -3.2245     8.0327     4.7328 H       
  43 H43           -1.1688     8.1054     3.3808 H       
  44 H44           -1.7775     9.5269     2.4977 H       
  45 H45           -6.6942     8.8041     1.5833 H       
  46 H46           -6.7908     9.6804     3.1296 H       
  47 H47           -5.8510    10.3594     1.7790 H       
  48 H48           -0.6978     8.6789    -3.1097 H       
  49 H49            0.2468     4.5833    -2.1960 H       
  50 H50            0.3981     3.3528    -5.0453 H       
  51 H51            1.9623     4.1221    -5.4053 H       
  52 H52            1.6587     3.4356    -3.7913 H       
  53 H53            1.0648     9.1597    -5.6212 H       
  54 H54            0.0119     8.1856    -6.6752 H       
  55 H55           -0.7043     9.2686    -5.4577 H       
@<TRIPOS>BOND
   1    1    2 1
   2    1    5 1
   3    2    3 2
   4    3    4 1
   5    3    9 1
   6    4    5 2
   7    4   31 1
   8    5    6 1
   9    6    7 2
  10    6    8 am
  11    8   10 1
  12    8   32 1
  13    9   33 1
  14    9   34 1
  15    9   35 1
  16   10   14 1
  17   10   36 1
  18   10   37 1
  19   11   12 1
  20   11   15 1
  21   12   13 2
  22   12   16 1
  23   13   14 1
  24   14   15 2
  25   15   25 1
  26   16   17 1
  27   16   21 1
  28   17   18 1
  29   17   38 1
  30   17   39 1
  31   18   19 1
  32   18   22 1
  33   18   40 1
  34   19   20 1
  35   20   21 1
  36   20   41 1
  37   20   42 1
  38   21   43 1
  39   21   44 1
  40   22   45 1
  41   22   46 1
  42   22   47 1
  43   23   24 ar
  44   23   28 ar
  45   23   30 1
  46   24   25 ar
  47   24   48 1
  48   25   26 ar
  49   26   27 ar
  50   26   49 1
  51   27   28 ar
  52   27   29 1
  53   29   50 1
  54   29   51 1
  55   29   52 1
  56   30   53 1
  57   30   54 1
  58   30   55 1

#	End of record

