#	Name: ASD01912563
#	Creating user name:	WinNT
#	Creation time:	15. 06. 2019 19:59

#	Modifying user name:	WinNT
#	Modification time:	15. 06. 2019 19:59

#	Program:	/corina/corina34_cracker 3.40 0067  02.08.2006

@<TRIPOS>MOLECULE
ASD01912563
  56   60    0    0    0
SMALL
NO_CHARGES


@<TRIPOS>ATOM
   1 C1             0.0003     1.4165    -0.3877 C.ar    
   2 C2            -1.2144     1.9577     0.0336 C.ar    
   3 C3             1.2604     2.1624    -0.1728 C.2     
   4 N4             1.3790     3.5089     0.0077 N.pl3   
   5 C5             2.5138     1.6274    -0.1133 C.2     
   6 C6             3.4194     2.6794     0.1040 C.2     
   7 N7             2.7379     3.8036     0.1760 N.2     
   8 C8             4.8920     2.5457     0.2346 C.ar    
   9 C9             5.6797     3.6740     0.4493 C.ar    
  10 C10            5.4903     1.2902     0.1484 C.ar    
  11 C11            6.8597     1.1708     0.2709 C.ar    
  12 C12            7.6389     2.2945     0.4789 C.ar    
  13 C13            7.0499     3.5437     0.5706 C.ar    
  14 C14            0.2792     4.4765     0.0230 C.3     
  15 C15           -0.1668     4.7078     1.4438 C.2     
  16 N16           -1.1736     5.5655     1.7029 N.am    
  17 O17            0.3803     4.1220     2.3540 O.2     
  18 C18           -1.6244     5.8058     3.0822 C.3     
  19 C19           -1.6536     7.3180     3.3283 C.3     
  20 N20           -2.4647     7.9646     2.2881 N.3     
  21 C21           -1.8709     7.7794     0.9573 C.3     
  22 C22           -1.8465     6.2907     0.6146 C.3     
  23 C23           -2.6491     9.3078     2.5663 C.ar    
  24 N24           -3.3600    10.0499     1.7301 N.ar    
  25 C25           -3.5552    11.3366     1.9665 C.ar    
  26 C26           -3.0057    11.9059     3.1046 C.ar    
  27 C27           -2.2676    11.1008     3.9579 C.ar    
  28 N28           -2.1150     9.8198     3.6654 N.ar    
  29 C29           -2.3858     1.2573    -0.1697 C.ar    
  30 C30           -2.3571     0.0208    -0.7894 C.ar    
  31 C31           -1.1556    -0.5212    -1.2094 C.ar    
  32 C32            0.0232     0.1669    -1.0071 C.ar    
  33 Cl33           8.0346     4.9494     0.8312 Cl      
  34 H34           -1.2380     2.9226     0.5181 H       
  35 H35            2.7650     0.5820    -0.2148 H       
  36 H36            5.2206     4.6490     0.5206 H       
  37 H37            4.8832     0.4118    -0.0136 H       
  38 H38            7.3239     0.1978     0.2046 H       
  39 H39            8.7102     2.1964     0.5746 H       
  40 H40            0.6176     5.4181    -0.4094 H       
  41 H41           -0.5550     4.0876    -0.5609 H       
  42 H42           -2.6243     5.3934     3.2176 H       
  43 H43           -0.9331     5.3344     3.7807 H       
  44 H44           -2.0896     7.5189     4.3068 H       
  45 H45           -0.6377     7.7117     3.2945 H       
  46 H46           -2.4645     8.3149     0.2164 H       
  47 H47           -0.8520     8.1666     0.9566 H       
  48 H48           -1.3045     6.1386    -0.3188 H       
  49 H49           -2.8671     5.9216     0.5129 H       
  50 H50           -4.1353    11.9364     1.2809 H       
  51 H51           -3.1493    12.9541     3.3215 H       
  52 H52           -1.8258    11.5135     4.8528 H       
  53 H53           -3.3269     1.6752     0.1560 H       
  54 H54           -3.2765    -0.5238    -0.9456 H       
  55 H55           -1.1396    -1.4871    -1.6923 H       
  56 H56            0.9605    -0.2571    -1.3358 H       
@<TRIPOS>BOND
   1    1    2 ar
   2    1    3 1
   3    1   32 ar
   4    2   29 ar
   5    2   34 1
   6    3    4 1
   7    3    5 2
   8    4   14 1
   9    4    7 1
  10    5    6 1
  11    5   35 1
  12    6    7 2
  13    6    8 1
  14    8    9 ar
  15    8   10 ar
  16    9   13 ar
  17    9   36 1
  18   10   11 ar
  19   10   37 1
  20   11   12 ar
  21   11   38 1
  22   12   13 ar
  23   12   39 1
  24   13   33 1
  25   14   15 1
  26   14   40 1
  27   14   41 1
  28   15   16 am
  29   15   17 2
  30   16   18 1
  31   16   22 1
  32   18   19 1
  33   18   42 1
  34   18   43 1
  35   19   20 1
  36   19   44 1
  37   19   45 1
  38   20   21 1
  39   20   23 1
  40   21   22 1
  41   21   46 1
  42   21   47 1
  43   22   48 1
  44   22   49 1
  45   23   24 ar
  46   23   28 ar
  47   24   25 ar
  48   25   26 ar
  49   25   50 1
  50   26   27 ar
  51   26   51 1
  52   27   28 ar
  53   27   52 1
  54   29   30 ar
  55   29   53 1
  56   30   31 ar
  57   30   54 1
  58   31   32 ar
  59   31   55 1
  60   32   56 1

#	End of record

