#	Name: ASD00111020
#	Creating user name:	WinNT
#	Creation time:	15. 06. 2019 18:30

#	Modifying user name:	WinNT
#	Modification time:	15. 06. 2019 18:30

#	Program:	/corina/corina34_cracker 3.40 0067  02.08.2006

@<TRIPOS>MOLECULE
ASD00111020
  34   35    0    0    0
SMALL
NO_CHARGES


@<TRIPOS>ATOM
   1 C1            -0.0659     1.2295     0.3137 C.ar    
   2 C2            -0.1066    -0.1580     0.3241 C.ar    
   3 C3            -1.3277    -0.8071     0.2560 C.ar    
   4 C4            -2.5071    -0.0795     0.1779 C.ar    
   5 C5            -2.4647     1.2946     0.1457 C.ar    
   6 C6            -1.2406     1.9480     0.2299 C.ar    
   7 C7            -3.8043    -0.8445     0.1609 C.3     
   8 C8            -4.7018    -0.3593    -0.9807 C.3     
   9 N9            -5.5867     0.6794    -0.4499 N.3     
  10 C10           -4.9233     1.4627     0.6004 C.3     
  11 C11           -3.6989     2.1506    -0.0009 C.3     
  12 Cl12           1.4567     2.0574     0.4131 Cl      
  13 C13           -3.4718     3.4844     0.7134 C.3     
  14 C14           -4.6506     4.4192     0.4350 C.3     
  15 O15            1.0455    -0.8752     0.4003 O.3     
  16 C16            0.9241    -2.2991     0.4062 C.3     
  17 H17           -1.3627    -1.8865     0.2632 H       
  18 H18           -1.2084     3.0275     0.2214 H       
  19 H19           -3.5940    -1.9055     0.0265 H       
  20 H20           -4.3199    -0.6986     1.1101 H       
  21 H21           -4.0885     0.0532    -1.7818 H       
  22 H22           -5.2958    -1.1903    -1.3612 H       
  23 H23           -5.9252     1.2780    -1.1881 H       
  24 H24           -5.6122     2.2141     0.9863 H       
  25 H25           -4.6110     0.8007     1.4081 H       
  26 H26           -3.8790     2.3394    -1.0592 H       
  27 H27           -3.3900     3.3125     1.7866 H       
  28 H28           -2.5520     3.9406     0.3473 H       
  29 H29           -4.7324     4.5911    -0.6383 H       
  30 H30           -5.5704     3.9630     0.8010 H       
  31 H31           -4.4888     5.3695     0.9438 H       
  32 H32            0.3286    -2.6094     1.2647 H       
  33 H33            0.4359    -2.6259    -0.5119 H       
  34 H34            1.9154    -2.7479     0.4701 H       
@<TRIPOS>BOND
   1    1    2 ar
   2    1   12 1
   3    1    6 ar
   4    2    3 ar
   5    2   15 1
   6    3    4 ar
   7    3   17 1
   8    4    5 ar
   9    4    7 1
  10    5    6 ar
  11    5   11 1
  12    6   18 1
  13    7    8 1
  14    7   19 1
  15    7   20 1
  16    8    9 1
  17    8   21 1
  18    8   22 1
  19    9   10 1
  20    9   23 1
  21   10   11 1
  22   10   24 1
  23   10   25 1
  24   11   13 1
  25   11   26 1
  26   13   14 1
  27   13   27 1
  28   13   28 1
  29   14   29 1
  30   14   30 1
  31   14   31 1
  32   15   16 1
  33   16   32 1
  34   16   33 1
  35   16   34 1

#	End of record

