#	Name: ASD01870031
#	Creating user name:	WinNT
#	Creation time:	15. 06. 2019 19:38

#	Modifying user name:	WinNT
#	Modification time:	15. 06. 2019 19:38

#	Program:	/corina/corina34_cracker 3.40 0067  02.08.2006

@<TRIPOS>MOLECULE
ASD01870031
  37   40    0    0    0
SMALL
NO_CHARGES


@<TRIPOS>ATOM
   1 C1             0.0117     1.2649    -0.3706 C.ar    
   2 C2            -0.0277     0.1140     0.3927 C.ar    
   3 N3             1.0646    -0.3886     0.9235 N.ar    
   4 C4             2.2672     0.1761     0.7591 C.ar    
   5 C5             2.3942     1.3370     0.0041 C.ar    
   6 C6             1.2287     1.8991    -0.5791 C.ar    
   7 S7             3.8350    -0.3263     1.3750 S.3     
   8 C8             4.6626     1.0233     0.6184 C.2     
   9 C9             3.7755     1.8203    -0.0736 C.2     
  10 C10            6.0378     1.3783     0.6250 C.2     
  11 N11            6.4262     2.4813    -0.0452 N.am    
  12 C12            5.5080     3.2304    -0.7106 C.2     
  13 N13            4.2488     2.9180    -0.7246 N.2     
  14 N14            1.3042     3.0562    -1.3412 N.3     
  15 C15            7.7764     2.8558    -0.0555 C.ar    
  16 O16            6.8523     0.6978     1.2265 O.2     
  17 C17            0.8284     2.8169    -2.7102 C.3     
  18 C18            0.5587     4.1527    -0.7088 C.3     
  19 C19            8.6218     2.3819    -1.0499 C.ar    
  20 C20            9.9522     2.7521    -1.0582 C.ar    
  21 C21           10.4434     3.5955    -0.0758 C.ar    
  22 C22            9.6019     4.0693     0.9169 C.ar    
  23 C23            8.2696     3.7059     0.9254 C.ar    
  24 F24           11.7453     3.9562    -0.0854 F       
  25 H25           -0.8935     1.6641    -0.8039 H       
  26 H26           -0.9732    -0.3816     0.5565 H       
  27 H27            5.8358     4.1115    -1.2424 H       
  28 H28           -0.2093     2.4846    -2.6813 H       
  29 H29            0.8984     3.7399    -3.2858 H       
  30 H30            1.4430     2.0486    -3.1794 H       
  31 H31            0.9773     4.3555     0.2770 H       
  32 H32            0.6345     5.0474    -1.3268 H       
  33 H33           -0.4888     3.8688    -0.6074 H       
  34 H34            8.2392     1.7238    -1.8160 H       
  35 H35           10.6101     2.3834    -1.8313 H       
  36 H36            9.9868     4.7269     1.6822 H       
  37 H37            7.6135     4.0759     1.6995 H       
@<TRIPOS>BOND
   1    1    2 ar
   2    1    6 ar
   3    1   25 1
   4    2    3 ar
   5    2   26 1
   6    3    4 ar
   7    4    5 ar
   8    4    7 1
   9    5    6 ar
  10    5    9 1
  11    6   14 1
  12    7    8 1
  13    8    9 2
  14    8   10 1
  15    9   13 1
  16   10   11 am
  17   10   16 2
  18   11   12 1
  19   11   15 1
  20   12   13 2
  21   12   27 1
  22   14   17 1
  23   14   18 1
  24   15   19 ar
  25   15   23 ar
  26   17   28 1
  27   17   29 1
  28   17   30 1
  29   18   31 1
  30   18   32 1
  31   18   33 1
  32   19   20 ar
  33   19   34 1
  34   20   21 ar
  35   20   35 1
  36   21   22 ar
  37   21   24 1
  38   22   23 ar
  39   22   36 1
  40   23   37 1

#	End of record

