#	Name: ASD01850083
#	Creating user name:	WinNT
#	Creation time:	15. 06. 2019 19:38

#	Modifying user name:	WinNT
#	Modification time:	15. 06. 2019 19:38

#	Program:	/corina/corina34_cracker 3.40 0067  02.08.2006

@<TRIPOS>MOLECULE
ASD01850083
  68   71    0    0    0
SMALL
NO_CHARGES


@<TRIPOS>ATOM
   1 C1             8.2004     1.2813     0.1572 C.ar    
   2 C2             8.1032     0.0218    -0.4036 C.ar    
   3 C3             6.9150    -0.6806    -0.3239 C.ar    
   4 C4             5.8244    -0.1234     0.3168 C.ar    
   5 C5             5.9219     1.1362     0.8785 C.ar    
   6 C6             7.1093     1.8389     0.7977 C.ar    
   7 C7             3.6044     2.1520    -0.6597 C.3     
   8 N8             4.0309     2.6404     0.6540 N.am    
   9 C9             3.7778     3.9143     1.0141 C.2     
  10 C10            4.2808     4.4382     2.3346 C.3     
  11 O11            3.1452     4.6389     0.2755 O.2     
  12 C12            4.0075     5.9413     2.4241 C.3     
  13 C13            3.5603     3.7180     3.4766 C.3     
  14 C14            4.0987     4.2283     4.8170 C.3     
  15 N15            3.9721     5.6917     4.8512 N.am    
  16 C16            4.5511     6.4768     3.7525 C.3     
  17 C17            4.3984     6.7842     7.3410 C.ar    
  18 C18            5.0738     7.9697     7.3165 C.ar    
  19 C19            6.0321     8.2407     8.2997 C.ar    
  20 C20            6.2891     7.2873     9.3036 C.ar    
  21 C21            5.5837     6.0862     9.3031 C.ar    
  22 C22            4.6497     5.8467     8.3356 C.ar    
  23 C23            6.9153     9.3702     8.5712 C.2     
  24 N24            7.6116     9.0842     9.6340 N.2     
  25 N25            7.2589     7.8184    10.1132 N.pl3   
  26 C26            4.7326     1.7441     1.5763 C.3     
  27 C27            2.1716     1.6234    -0.5667 C.3     
  28 C28            1.2264     2.7721    -0.2091 C.3     
  29 C29            1.7604     1.0250    -1.9134 C.3     
  30 C30            2.0953     0.5444     0.5154 C.3     
  31 S31            3.1912     6.4419     6.1041 S.o2    
  32 O32            2.7556     7.7007     5.6092 O.2     
  33 O33            2.3081     5.4780     6.6612 O.2     
  34 C34            7.2154     3.2120     1.4095 C.3     
  35 F35            8.5253     3.6838     1.2722 F       
  36 F36            6.3355     4.0824     0.7573 F       
  37 F37            6.8839     3.1445     2.7670 F       
  38 H38            9.1299     1.8281     0.0989 H       
  39 H39            8.9553    -0.4136    -0.9042 H       
  40 H40            6.8389    -1.6645    -0.7627 H       
  41 H41            4.8961    -0.6717     0.3784 H       
  42 H42            3.6445     2.9680    -1.3812 H       
  43 H43            4.2676     1.3493    -0.9818 H       
  44 H44            5.3532     4.2588     2.4116 H       
  45 H45            4.5018     6.4508     1.5970 H       
  46 H46            2.9335     6.1196     2.3722 H       
  47 H47            2.4904     3.9172     3.4148 H       
  48 H48            3.7361     2.6451     3.3986 H       
  49 H49            3.5215     3.7924     5.6324 H       
  50 H50            5.1475     3.9498     4.9193 H       
  51 H51            5.6368     6.3816     3.7681 H       
  52 H52            4.2724     7.5244     3.8657 H       
  53 H53            4.8701     8.6947     6.5424 H       
  54 H54            5.7726     5.3473    10.0677 H       
  55 H55            4.1050     4.9142     8.3394 H       
  56 H56            6.9799    10.2807     7.9939 H       
  57 H57            7.6394     7.3860    10.8936 H       
  58 H58            4.0563     0.9522     1.8983 H       
  59 H59            5.0706     2.3089     2.4451 H       
  60 H60            1.2633     3.5300    -0.9916 H       
  61 H61            0.2090     2.3911    -0.1200 H       
  62 H62            1.5334     3.2135     0.7391 H       
  63 H63            2.4338     0.2066    -2.1682 H       
  64 H64            0.7397     0.6484    -1.8472 H       
  65 H65            1.8147     1.7936    -2.6844 H       
  66 H66            2.3301     0.9846     1.4845 H       
  67 H67            1.0893     0.1257     0.5406 H       
  68 H68            2.8122    -0.2456     0.2919 H       
@<TRIPOS>BOND
   1    1    2 ar
   2    1    6 ar
   3    1   38 1
   4    2    3 ar
   5    2   39 1
   6    3    4 ar
   7    3   40 1
   8    4    5 ar
   9    4   41 1
  10    5    6 ar
  11    5   26 1
  12    6   34 1
  13    7    8 1
  14    7   27 1
  15    7   42 1
  16    7   43 1
  17    8    9 am
  18    8   26 1
  19    9   10 1
  20    9   11 2
  21   10   12 1
  22   10   13 1
  23   10   44 1
  24   12   16 1
  25   12   45 1
  26   12   46 1
  27   13   14 1
  28   13   47 1
  29   13   48 1
  30   14   15 1
  31   14   49 1
  32   14   50 1
  33   15   31 am
  34   15   16 1
  35   16   51 1
  36   16   52 1
  37   17   31 1
  38   17   18 ar
  39   17   22 ar
  40   18   19 ar
  41   18   53 1
  42   19   20 ar
  43   19   23 1
  44   20   21 ar
  45   20   25 1
  46   21   22 ar
  47   21   54 1
  48   22   55 1
  49   23   24 2
  50   23   56 1
  51   24   25 1
  52   25   57 1
  53   26   58 1
  54   26   59 1
  55   27   28 1
  56   27   29 1
  57   27   30 1
  58   28   60 1
  59   28   61 1
  60   28   62 1
  61   29   63 1
  62   29   64 1
  63   29   65 1
  64   30   66 1
  65   30   67 1
  66   30   68 1
  67   31   32 2
  68   31   33 2
  69   34   35 1
  70   34   36 1
  71   34   37 1

#	End of record

