#	Name: ASD01882873
#	Creating user name:	WinNT
#	Creation time:	15. 06. 2019 19:45

#	Modifying user name:	WinNT
#	Modification time:	15. 06. 2019 19:45

#	Program:	/corina/corina34_cracker 3.40 0067  02.08.2006

@<TRIPOS>MOLECULE
ASD01882873
  25   24    0    0    0
SMALL
NO_CHARGES


@<TRIPOS>ATOM
   1 C1            -0.0184     1.5028     0.0103 C.2     
   2 C2             0.0021    -0.0041     0.0020 C.3     
   3 C3             1.4513    -0.4944    -0.0145 C.3     
   4 C4             1.4720    -2.0242    -0.0229 C.3     
   5 O5             1.0197     2.1211     0.0037 O.2     
   6 O6            -1.1898     2.1580     0.0194 O.3     
   7 C7             2.1536     0.0321    -1.2676 C.3     
   8 C8            -0.6897    -0.5226     1.2364 C.2     
   9 O9            -1.6630    -1.2296     1.1311 O.2     
  10 C10           -1.1335     3.6089     0.0270 C.3     
  11 C11           -2.5551     4.1744     0.0369 C.3     
  12 H12           -0.5153    -0.3696    -0.8850 H       
  13 H13            1.9686    -0.1289     0.8726 H       
  14 H14            0.9547    -2.3897    -0.9099 H       
  15 H15            2.5045    -2.3735    -0.0346 H       
  16 H16            0.9717    -2.3993     0.8699 H       
  17 H17            2.1388     1.1220    -1.2617 H       
  18 H18            3.1860    -0.3172    -1.2794 H       
  19 H19            1.6363    -0.3334    -2.1547 H       
  20 H20           -0.3149    -0.2620     2.2152 H       
  21 H21           -0.6017     3.9472     0.9164 H       
  22 H22           -0.6102     3.9569    -0.8636 H       
  23 H23           -3.0784     3.8265     0.9275 H       
  24 H24           -2.5128     5.2636     0.0426 H       
  25 H25           -3.0869     3.8361    -0.8525 H       
@<TRIPOS>BOND
   1    1    2 1
   2    1    5 2
   3    1    6 1
   4    2    3 1
   5    2    8 1
   6    2   12 1
   7    3    4 1
   8    3    7 1
   9    3   13 1
  10    4   14 1
  11    4   15 1
  12    4   16 1
  13    6   10 1
  14    7   17 1
  15    7   18 1
  16    7   19 1
  17    8    9 2
  18    8   20 1
  19   10   11 1
  20   10   21 1
  21   10   22 1
  22   11   23 1
  23   11   24 1
  24   11   25 1

#	End of record

