#	Name: ASD01230748
#	Creating user name:	WinNT
#	Creation time:	15. 06. 2019 19:15

#	Modifying user name:	WinNT
#	Modification time:	15. 06. 2019 19:15

#	Program:	/corina/corina34_cracker 3.40 0067  02.08.2006

@<TRIPOS>MOLECULE
ASD01230748
  54   57    0    0    0
SMALL
NO_CHARGES


@<TRIPOS>ATOM
   1 C1            -0.0212     1.5335     0.0138 C.3     
   2 C2            -0.0025     0.0027    -0.0063 C.3     
   3 C3            -1.4144    -0.5656    -0.0287 C.3     
   4 C4            -2.4296     0.3569     0.6315 C.3     
   5 N5            -1.8019     1.1926     1.6575 N.pl3   
   6 C6            -0.7228     1.9555     1.2934 C.2     
   7 C7            -2.2952     1.1796     3.0324 C.3     
   8 C8            -2.5588     2.6141     3.4931 C.3     
   9 S9            -1.0566     3.6025     3.2688 S.o2    
  10 N10           -0.3205     2.9832     1.9320 N.am    
  11 C11            1.3891     2.0646     0.0023 C.ar    
  12 C12            1.8105     2.8818    -1.0303 C.ar    
  13 O13           -1.3894     4.9329     2.8967 O.2     
  14 O14           -0.1352     3.3499     4.3207 O.2     
  15 C15            2.2578     1.7384     1.0274 C.ar    
  16 C16            3.5509     2.2242     1.0194 C.ar    
  17 C17            3.9778     3.0401    -0.0183 C.ar    
  18 C18            3.1028     3.3698    -1.0432 C.ar    
  19 O19            5.2493     3.5196    -0.0283 O.3     
  20 C20            5.6568     4.2537    -1.1846 C.3     
  21 C21            5.2616     5.6976    -1.0319 C.3     
  22 C22            7.1903     4.1783    -1.3324 C.3     
  23 C23            7.6333     4.4901    -2.6832 C.3     
  24 C24            7.2648     5.9269    -3.1059 C.3     
  25 C25            5.8197     5.9461    -3.5249 C.3     
  26 C26            4.8776     6.3489    -2.3743 C.3     
  27 H27           -0.5666     1.9098    -0.8517 H       
  28 H28            0.5331    -0.3364    -0.8931 H       
  29 H29            0.5144    -0.3599     0.8822 H       
  30 H30           -1.7108    -0.7311    -1.0645 H       
  31 H31           -1.4170    -1.5226     0.4931 H       
  32 H32           -2.8752     0.9991    -0.1282 H       
  33 H33           -3.2127    -0.2455     1.0919 H       
  34 H34           -3.2211     0.6065     3.0808 H       
  35 H35           -1.5495     0.7208     3.6817 H       
  36 H36           -3.3680     3.0430     2.9020 H       
  37 H37           -2.8390     2.6121     4.5465 H       
  38 H38            1.1288     3.1385    -1.8278 H       
  39 H39            1.9249     1.1035     1.8352 H       
  40 H40            4.2290     1.9694     1.8205 H       
  41 H41            3.4327     4.0048    -1.8521 H       
  42 H42            5.1824     3.8331    -2.0712 H       
  43 H43            4.4110     5.7605    -0.3533 H       
  44 H44            6.0970     6.2479    -0.5990 H       
  45 H45            7.6469     4.8848    -0.6392 H       
  46 H46            7.5205     3.1716    -1.0761 H       
  47 H47            8.7158     4.3735    -2.7353 H       
  48 H48            7.1708     3.7883    -3.3772 H       
  49 H49            7.4113     6.6049    -2.2651 H       
  50 H50            7.8926     6.2350    -3.9420 H       
  51 H51            5.6994     6.6552    -4.3439 H       
  52 H52            5.5414     4.9529    -3.8772 H       
  53 H53            3.8612     6.0511    -2.6315 H       
  54 H54            4.9057     7.4326    -2.2599 H       
@<TRIPOS>BOND
   1    1    2 1
   2    1   11 1
   3    1    6 1
   4    1   27 1
   5    2    3 1
   6    2   28 1
   7    2   29 1
   8    3    4 1
   9    3   30 1
  10    3   31 1
  11    4    5 1
  12    4   32 1
  13    4   33 1
  14    5    6 1
  15    5    7 1
  16    6   10 2
  17    7    8 1
  18    7   34 1
  19    7   35 1
  20    8    9 1
  21    8   36 1
  22    8   37 1
  23    9   10 am
  24    9   13 2
  25    9   14 2
  26   11   12 ar
  27   11   15 ar
  28   12   18 ar
  29   12   38 1
  30   15   16 ar
  31   15   39 1
  32   16   17 ar
  33   16   40 1
  34   17   18 ar
  35   17   19 1
  36   18   41 1
  37   19   20 1
  38   20   22 1
  39   20   21 1
  40   20   42 1
  41   21   26 1
  42   21   43 1
  43   21   44 1
  44   22   23 1
  45   22   45 1
  46   22   46 1
  47   23   24 1
  48   23   47 1
  49   23   48 1
  50   24   25 1
  51   24   49 1
  52   24   50 1
  53   25   26 1
  54   25   51 1
  55   25   52 1
  56   26   53 1
  57   26   54 1

#	End of record

