#	Name: ASD01900487
#	Creating user name:	WinNT
#	Creation time:	15. 06. 2019 19:52

#	Modifying user name:	WinNT
#	Modification time:	15. 06. 2019 19:52

#	Program:	/corina/corina34_cracker 3.40 0067  02.08.2006

@<TRIPOS>MOLECULE
ASD01900487
  40   43    0    0    0
SMALL
NO_CHARGES


@<TRIPOS>ATOM
   1 C1             0.1578     1.5792     0.1847 C.ar    
   2 C2             0.3698     0.2107     0.0635 C.ar    
   3 C3             1.6417    -0.3067     0.2133 C.ar    
   4 C4             2.7085     0.5408     0.4850 C.ar    
   5 C5             2.4959     1.9079     0.6064 C.ar    
   6 C6             1.2243     2.4254     0.4562 C.ar    
   7 N7            -1.1311     2.1050     0.0271 N.pl3   
   8 N8             3.9972     0.0170     0.6368 N.pl3   
   9 C9             6.3423     0.3164     1.5994 C.ar    
  10 C10            6.8934     1.2715     2.4748 C.ar    
  11 C11            8.2404     1.1739     2.8222 C.ar    
  12 C12            8.9794     0.1368     2.2879 C.ar    
  13 C13            8.3703    -0.7698     1.4302 C.ar    
  14 N14            7.0998    -0.6641     1.1135 N.ar    
  15 N15            4.7138     1.7531     2.1498 N.2     
  16 N16            5.8880     2.1423     2.8026 N.pl3   
  17 C17            4.9359     0.6877     1.4267 C.2     
  18 C18           -1.3018     3.3819    -0.4960 C.ar    
  19 C19           -2.5722     3.9488    -0.5304 C.ar    
  20 C20           -2.7275     5.2198    -1.0529 C.ar    
  21 C21           -1.6030     5.8841    -1.5255 C.ar    
  22 C22           -0.3727     5.2617    -1.4605 C.ar    
  23 N23           -0.2533     4.0499    -0.9520 N.ar    
  24 C24            0.8508     5.9774    -1.9722 C.3     
  25 Cl25          -0.9637    -0.8479    -0.2755 Cl      
  26 H26            1.8068    -1.3699     0.1195 H       
  27 H27            3.3252     2.5664     0.8184 H       
  28 H28            1.0594     3.4885     0.5504 H       
  29 H29           -1.9044     1.5782     0.2829 H       
  30 H30            4.2392    -0.8115     0.1941 H       
  31 H31            8.6937     1.8906     3.4910 H       
  32 H32           10.0253     0.0317     2.5355 H       
  33 H33            8.9532    -1.5789     1.0154 H       
  34 H34            5.9761     2.9065     3.3934 H       
  35 H35           -3.4253     3.4035    -0.1544 H       
  36 H36           -3.7012     5.6851    -1.0930 H       
  37 H37           -1.6905     6.8776    -1.9400 H       
  38 H38            1.3003     6.5527    -1.1628 H       
  39 H39            1.5706     5.2473    -2.3423 H       
  40 H40            0.5665     6.6498    -2.7816 H       
@<TRIPOS>BOND
   1    1    2 ar
   2    1    6 ar
   3    1    7 1
   4    2    3 ar
   5    2   25 1
   6    3    4 ar
   7    3   26 1
   8    4    5 ar
   9    4    8 1
  10    5    6 ar
  11    5   27 1
  12    6   28 1
  13    7   18 1
  14    7   29 1
  15    8   17 1
  16    8   30 1
  17    9   10 ar
  18    9   14 ar
  19    9   17 1
  20   10   11 ar
  21   10   16 1
  22   11   12 ar
  23   11   31 1
  24   12   13 ar
  25   12   32 1
  26   13   14 ar
  27   13   33 1
  28   15   16 1
  29   15   17 2
  30   16   34 1
  31   18   19 ar
  32   18   23 ar
  33   19   20 ar
  34   19   35 1
  35   20   21 ar
  36   20   36 1
  37   21   22 ar
  38   21   37 1
  39   22   23 ar
  40   22   24 1
  41   24   38 1
  42   24   39 1
  43   24   40 1

#	End of record

