#	Name: ASD03731788
#	Creating user name:	WinNT
#	Creation time:	15. 06. 2019 20:46

#	Modifying user name:	WinNT
#	Modification time:	15. 06. 2019 20:46

#	Program:	/corina/corina34_cracker 3.40 0067  02.08.2006

@<TRIPOS>MOLECULE
ASD03731788
  33   34    0    0    0
SMALL
NO_CHARGES


@<TRIPOS>ATOM
   1 C1             0.3753     1.0934     1.9783 C.2     
   2 C2             0.2918    -0.2829     1.4516 C.ar    
   3 C3             1.3746    -0.8361     0.7624 C.ar    
   4 C4             1.2926    -2.1210     0.2723 C.ar    
   5 C5             0.1337    -2.8670     0.4626 C.ar    
   6 C6            -0.9445    -2.3197     1.1475 C.ar    
   7 C7            -0.8675    -1.0378     1.6457 C.ar    
   8 O8             1.3868     1.7474     1.8128 O.2     
   9 N9            -0.6719     1.6272     2.6378 N.am    
  10 O10            0.0558    -4.1323    -0.0222 O.3     
  11 C11           -1.1301    -4.7863     0.0893 C.ar    
  12 C12           -2.0843    -4.6706    -0.9114 C.ar    
  13 C13           -3.2891    -5.3365    -0.7956 C.ar    
  14 C14           -3.5446    -6.1174     0.3165 C.ar    
  15 C15           -2.5956    -6.2341     1.3153 C.ar    
  16 C16           -1.3866    -5.5756     1.2013 C.ar    
  17 S17           -0.5783     3.1714     3.2287 S.o2    
  18 O18           -1.8293     3.3775     3.8703 O.2     
  19 O19            0.6357     3.1911     3.9670 O.2     
  20 C20           -0.4414     4.2141     1.7507 C.3     
  21 Cl21           2.6365    -2.8099    -0.5840 Cl      
  22 H22            2.2741    -0.2570     0.6139 H       
  23 H23           -1.8424    -2.9018     1.2932 H       
  24 H24           -1.7043    -0.6152     2.1820 H       
  25 H25           -1.4804     1.1069     2.7663 H       
  26 H26           -1.8855    -4.0601    -1.7799 H       
  27 H27           -4.0321    -5.2467    -1.5742 H       
  28 H28           -4.4873    -6.6369     0.4052 H       
  29 H29           -2.7978    -6.8444     2.1830 H       
  30 H30           -0.6436    -5.6712     1.9793 H       
  31 H31           -1.3208     4.0714     1.1227 H       
  32 H32           -0.3740     5.2603     2.0491 H       
  33 H33            0.4527     3.9373     1.1923 H       
@<TRIPOS>BOND
   1    1    2 1
   2    1    8 2
   3    1    9 am
   4    2    3 ar
   5    2    7 ar
   6    3    4 ar
   7    3   22 1
   8    4    5 ar
   9    4   21 1
  10    5    6 ar
  11    5   10 1
  12    6    7 ar
  13    6   23 1
  14    7   24 1
  15    9   17 am
  16    9   25 1
  17   10   11 1
  18   11   12 ar
  19   11   16 ar
  20   12   13 ar
  21   12   26 1
  22   13   14 ar
  23   13   27 1
  24   14   15 ar
  25   14   28 1
  26   15   16 ar
  27   15   29 1
  28   16   30 1
  29   17   18 2
  30   17   19 2
  31   17   20 1
  32   20   31 1
  33   20   32 1
  34   20   33 1

#	End of record

