#	Name: ASD01884947
#	Creating user name:	WinNT
#	Creation time:	15. 06. 2019 19:49

#	Modifying user name:	WinNT
#	Modification time:	15. 06. 2019 19:49

#	Program:	/corina/corina34_cracker 3.40 0067  02.08.2006

@<TRIPOS>MOLECULE
ASD01884947
  43   47    0    0    0
SMALL
NO_CHARGES


@<TRIPOS>ATOM
   1 C1            -0.0166     1.3752     0.0096 C.ar    
   2 C2             0.0021    -0.0041     0.0020 C.ar    
   3 C3            -1.1980    -0.7166     0.0096 C.ar    
   4 C4            -2.4130    -0.0319     0.0249 C.ar    
   5 C5            -2.4269     1.3469     0.0325 C.ar    
   6 C6            -1.2317     2.0554     0.0307 C.ar    
   7 C7            -1.1813    -2.1977     0.0010 C.2     
   8 C8            -1.6672    -2.9076     1.0833 C.2     
   9 C9            -0.6729    -2.9007    -1.1185 C.2     
  10 C10           -0.6590    -4.2467    -1.1244 C.2     
  11 N11           -1.1324    -4.9557    -0.0580 N.pl3   
  12 C12           -1.6384    -4.3119     1.0454 C.2     
  13 C13           -1.2408    -6.2873     0.2067 C.2     
  14 N14           -1.7736    -6.4107     1.3948 N.2     
  15 N15           -2.0133    -5.2518     1.8997 N.2     
  16 C16           -0.8234    -7.4133    -0.7037 C.3     
  17 N17           -1.2490     3.4518     0.0383 N.pl3   
  18 C18           -2.5266     4.1686     0.0482 C.3     
  19 C19           -2.5382     5.5838     0.6295 C.3     
  20 F20            1.1442     2.0664     0.0022 F       
  21 C21            0.2398    -8.3837    -0.1854 C.3     
  22 C22           -1.2181    -8.8343    -0.2964 C.3     
  23 C23           -2.6665     5.3761    -0.8809 C.3     
  24 C24           -2.2189    -2.1861     2.2858 C.3     
  25 F25           -3.6081    -2.0732     2.1651 F       
  26 F26           -1.9085    -2.9059     3.4445 F       
  27 F27           -1.6523    -0.9093     2.3641 F       
  28 H28            0.9442    -0.5319    -0.0102 H       
  29 H29           -3.3427    -0.5815     0.0305 H       
  30 H30           -3.3679     1.8767     0.0443 H       
  31 H31           -0.2952    -2.3549    -1.9705 H       
  32 H32           -0.2690    -4.7722    -1.9835 H       
  33 H33           -0.8146    -7.1786    -1.7681 H       
  34 H34           -0.4150     3.9472     0.0371 H       
  35 H35           -3.4106     3.5514     0.2085 H       
  36 H36           -3.4301     5.8978     1.1719 H       
  37 H37           -1.5953     5.9816     1.0046 H       
  38 H38            0.9480    -8.7878    -0.9088 H       
  39 H39            0.6374    -8.2077     0.8141 H       
  40 H40           -1.7797    -8.9547     0.6300 H       
  41 H41           -1.4691    -9.5348    -1.0930 H       
  42 H42           -1.8079     5.6372    -1.4995 H       
  43 H43           -3.6427     5.5535    -1.3322 H       
@<TRIPOS>BOND
   1    1    2 ar
   2    1   20 1
   3    1    6 ar
   4    2    3 ar
   5    2   28 1
   6    3    4 ar
   7    3    7 1
   8    4    5 ar
   9    4   29 1
  10    5    6 ar
  11    5   30 1
  12    6   17 1
  13    7    8 2
  14    7    9 1
  15    8   24 1
  16    8   12 1
  17    9   10 2
  18    9   31 1
  19   10   11 1
  20   10   32 1
  21   11   12 1
  22   11   13 1
  23   12   15 2
  24   13   14 2
  25   13   16 1
  26   14   15 1
  27   16   21 1
  28   16   22 1
  29   16   33 1
  30   17   18 1
  31   17   34 1
  32   18   19 1
  33   18   23 1
  34   18   35 1
  35   19   23 1
  36   19   36 1
  37   19   37 1
  38   21   22 1
  39   21   38 1
  40   21   39 1
  41   22   40 1
  42   22   41 1
  43   23   42 1
  44   23   43 1
  45   24   25 1
  46   24   26 1
  47   24   27 1

#	End of record

