#	Name: ASD00690002
#	Creating user name:	WinNT
#	Creation time:	15. 06. 2019 18:37

#	Modifying user name:	WinNT
#	Modification time:	15. 06. 2019 18:37

#	Program:	/corina/corina34_cracker 3.40 0067  02.08.2006

@<TRIPOS>MOLECULE
ASD00690002
  24   24    0    0    0
SMALL
NO_CHARGES


@<TRIPOS>ATOM
   1 C1            -0.0184     1.5028     0.0103 C.2     
   2 N2             1.3055    -0.4734    -0.4867 N.3     
   3 C3             0.0021    -0.0041     0.0020 C.3     
   4 C4            -0.2279    -0.5251     1.4221 C.3     
   5 C5            -0.3300    -2.0284     1.3953 C.ar    
   6 C6             0.8076    -2.8001     1.5442 C.ar    
   7 C7             0.7167    -4.1783     1.5195 C.ar    
   8 C8            -0.5173    -4.7880     1.3456 C.ar    
   9 O9            -0.6093    -6.1436     1.3214 O.3     
  10 C10           -1.6572    -4.0114     1.1968 C.ar    
  11 C11           -1.5617    -2.6336     1.2274 C.ar    
  12 O12            1.0197     2.1211     0.0037 O.2     
  13 O13           -1.1898     2.1580     0.0194 O.3     
  14 H14            1.4531    -0.1967    -1.4457 H       
  15 H15            2.0536    -0.1430     0.1043 H       
  16 H16           -0.7864    -0.3745    -0.6531 H       
  17 H17            0.6068    -0.2288     2.0574 H       
  18 H18           -1.1526    -0.1051     1.8179 H       
  19 H19            1.7680    -2.3250     1.6796 H       
  20 H20            1.6056    -4.7807     1.6352 H       
  21 H21           -0.7556    -6.5435     2.1896 H       
  22 H22           -2.6189    -4.4836     1.0609 H       
  23 H23           -2.4494    -2.0286     1.1160 H       
  24 H24           -1.1523     3.1243     0.0245 H       
@<TRIPOS>BOND
   1    1    3 1
   2    1   12 2
   3    1   13 1
   4    2    3 1
   5    2   14 1
   6    2   15 1
   7    3    4 1
   8    3   16 1
   9    4    5 1
  10    4   17 1
  11    4   18 1
  12    5    6 ar
  13    5   11 ar
  14    6    7 ar
  15    6   19 1
  16    7    8 ar
  17    7   20 1
  18    8    9 1
  19    8   10 ar
  20    9   21 1
  21   10   11 ar
  22   10   22 1
  23   11   23 1
  24   13   24 1

#	End of record

