#	Name: ASD02560164
#	Creating user name:	WinNT
#	Creation time:	15. 06. 2019 20:24

#	Modifying user name:	WinNT
#	Modification time:	15. 06. 2019 20:24

#	Program:	/corina/corina34_cracker 3.40 0067  02.08.2006

@<TRIPOS>MOLECULE
ASD02560164
  61   64    0    0    0
SMALL
NO_CHARGES


@<TRIPOS>ATOM
   1 N1            -0.1946     1.0629     0.0943 N.2     
   2 N2            -0.0639    -0.1645     0.0573 N.2     
   3 C3             1.0976     1.7401    -0.0745 C.3     
   4 N4             2.1128     0.6850     0.1717 N.3     
   5 C5             1.3407    -0.5435    -0.1434 C.3     
   6 S6             1.8005    -1.8858     0.9868 S.3     
   7 C7             1.3793    -1.2095     2.6165 C.3     
   8 C8             1.7084    -2.2235     3.6816 C.2     
   9 O9             2.1807    -3.2968     3.3718 O.2     
  10 N10            1.4780    -1.9376     4.9784 N.am    
  11 C11            3.1989     0.8265    -0.6893 C.ar    
  12 C12            1.6910    -2.9138     5.9588 C.ar    
  13 C13            0.8693    -2.9672     7.0786 C.ar    
  14 C14            1.0824    -3.9326     8.0441 C.ar    
  15 C15            2.1118    -4.8444     7.8966 C.ar    
  16 C16            2.9305    -4.7934     6.7838 C.ar    
  17 C17            2.7197    -3.8341     5.8121 C.ar    
  18 Cl18          -0.4225    -1.8225     7.2642 Cl      
  19 S19            2.3807    -6.0735     9.1302 S.o2    
  20 O20            3.7421    -6.4648     9.0167 O.2     
  21 O21            1.8152    -5.5670    10.3313 O.2     
  22 C22            4.1369     1.8619    -0.4882 C.ar    
  23 C23            3.3704    -0.0469    -1.7423 C.ar    
  24 C24            4.4520     0.0856    -2.6076 C.ar    
  25 C25            5.3693     1.0780    -2.4397 C.ar    
  26 C26            5.2338     1.9862    -1.3762 C.ar    
  27 C27            6.1651     3.0207    -1.1789 C.ar    
  28 C28            6.0033     3.8833    -0.1387 C.ar    
  29 C29            4.9264     3.7573     0.7366 C.ar    
  30 C30            4.0032     2.7698     0.5738 C.ar    
  31 N31            1.4774    -7.3962     8.7094 N.am    
  32 C32            6.5319     1.1989    -3.3909 C.3     
  33 C33            7.2909    -0.1287    -3.4400 C.3     
  34 C34            6.0134     1.5419    -4.7889 C.3     
  35 C35            1.2310     2.2862    -1.4975 C.3     
  36 F36            0.1247     3.0895    -1.7943 F       
  37 F37            2.4003     3.0477    -1.5970 F       
  38 H38            1.2023     2.5448     0.6532 H       
  39 H39            1.5090    -0.8428    -1.1779 H       
  40 H40            1.9531    -0.2994     2.7915 H       
  41 H41            0.3143    -0.9797     2.6503 H       
  42 H42            1.1646    -1.0555     5.2323 H       
  43 H43            0.4448    -3.9749     8.9147 H       
  44 H44            3.7336    -5.5068     6.6720 H       
  45 H45            3.3599    -3.7952     4.9432 H       
  46 H46            2.6574    -0.8432    -1.8970 H       
  47 H47            4.5662    -0.6103    -3.4256 H       
  48 H48            7.0048     3.1301    -1.8492 H       
  49 H49            6.7204     4.6769     0.0108 H       
  50 H50            4.8208     4.4549     1.5542 H       
  51 H51            3.1735     2.6841     1.2598 H       
  52 H52            1.7759    -8.2856     8.9557 H       
  53 H53            0.6499    -7.2814     8.2166 H       
  54 H54            7.2014     1.9877    -3.0480 H       
  55 H55            6.6214    -0.9175    -3.7828 H       
  56 H56            8.1318    -0.0412    -4.1280 H       
  57 H57            7.6603    -0.3730    -2.4440 H       
  58 H58            5.4727     2.4876    -4.7540 H       
  59 H59            6.8543     1.6293    -5.4770 H       
  60 H60            5.3439     0.7530    -5.1318 H       
  61 H61            1.2769     1.4561    -2.2024 H       
@<TRIPOS>BOND
   1    1    2 2
   2    1    3 1
   3    2    5 1
   4    3    4 1
   5    3   35 1
   6    3   38 1
   7    4    5 1
   8    4   11 1
   9    5    6 1
  10    5   39 1
  11    6    7 1
  12    7    8 1
  13    7   40 1
  14    7   41 1
  15    8    9 2
  16    8   10 am
  17   10   12 1
  18   10   42 1
  19   11   22 ar
  20   11   23 ar
  21   12   13 ar
  22   12   17 ar
  23   13   14 ar
  24   13   18 1
  25   14   15 ar
  26   14   43 1
  27   15   16 ar
  28   15   19 1
  29   16   17 ar
  30   16   44 1
  31   17   45 1
  32   19   20 2
  33   19   21 2
  34   19   31 am
  35   22   26 ar
  36   22   30 ar
  37   23   24 ar
  38   23   46 1
  39   24   25 ar
  40   24   47 1
  41   25   26 ar
  42   25   32 1
  43   26   27 ar
  44   27   28 ar
  45   27   48 1
  46   28   29 ar
  47   28   49 1
  48   29   30 ar
  49   29   50 1
  50   30   51 1
  51   31   52 1
  52   31   53 1
  53   32   33 1
  54   32   34 1
  55   32   54 1
  56   33   55 1
  57   33   56 1
  58   33   57 1
  59   34   58 1
  60   34   59 1
  61   34   60 1
  62   35   36 1
  63   35   37 1
  64   35   61 1

#	End of record

