#	Name: ASD00100137
#	Creating user name:	WinNT
#	Creation time:	15. 06. 2019 18:30

#	Modifying user name:	WinNT
#	Modification time:	15. 06. 2019 18:30

#	Program:	/corina/corina34_cracker 3.40 0067  02.08.2006

@<TRIPOS>MOLECULE
ASD00100137
  23   24    0    0    0
SMALL
NO_CHARGES


@<TRIPOS>ATOM
   1 N1            -0.0167     1.3802     0.0096 N.pl3   
   2 C2             0.0021    -0.0041     0.0020 C.2     
   3 N3             1.0777    -0.7529    -0.0118 N.2     
   4 C4             0.7099    -2.0588    -0.0147 C.2     
   5 C5            -0.6452    -2.1102    -0.0021 C.2     
   6 N6            -1.0932    -0.8118     0.0136 N.pl3   
   7 C7             1.6275    -3.2242    -0.0295 C.ar    
   8 C8             3.0074    -3.0278    -0.0415 C.ar    
   9 C9             3.8564    -4.1157    -0.0548 C.ar    
  10 C10            3.3403    -5.3992    -0.0566 C.ar    
  11 C11            1.9717    -5.6000    -0.0446 C.ar    
  12 C12            1.1132    -4.5196    -0.0255 C.ar    
  13 N13            4.2561    -6.5622    -0.0718 N.pl3   
  14 O14            5.4616    -6.3880    -0.0827 O.2     
  15 O15            3.8042    -7.6932    -0.0734 O.2     
  16 H16            0.8167     1.8766     0.0043 H       
  17 H17           -0.8632     1.8537     0.0162 H       
  18 H18           -1.2552    -3.0014    -0.0006 H       
  19 H19           -2.0193    -0.5237     0.0284 H       
  20 H20            3.4113    -2.0262    -0.0409 H       
  21 H21            4.9257    -3.9648    -0.0642 H       
  22 H22            1.5743    -6.6042    -0.0464 H       
  23 H23            0.0449    -4.6775    -0.0120 H       
@<TRIPOS>BOND
   1    1    2 1
   2    1   16 1
   3    1   17 1
   4    2    3 2
   5    2    6 1
   6    3    4 1
   7    4    5 2
   8    4    7 1
   9    5    6 1
  10    5   18 1
  11    6   19 1
  12    7    8 ar
  13    7   12 ar
  14    8    9 ar
  15    8   20 1
  16    9   10 ar
  17    9   21 1
  18   10   11 ar
  19   10   13 1
  20   11   12 ar
  21   11   22 1
  22   12   23 1
  23   13   14 2
  24   13   15 2

#	End of record

