#	Name: ASD05730156
#	Creating user name:	WinNT
#	Creation time:	15. 06. 2019 21:02

#	Modifying user name:	WinNT
#	Modification time:	15. 06. 2019 21:02

#	Program:	/corina/corina34_cracker 3.40 0067  02.08.2006

@<TRIPOS>MOLECULE
ASD05730156
  71   76    0    0    0
SMALL
NO_CHARGES


@<TRIPOS>ATOM
   1 C1             0.0286     1.5031     0.0331 C.3     
   2 C2             0.0367    -0.0039     0.0186 C.ar    
   3 C3            -0.9922    -0.7051     0.6203 C.ar    
   4 C4            -0.9876    -2.0861     0.6093 C.ar    
   5 C5             0.0518    -2.7707    -0.0076 C.ar    
   6 C6             1.0834    -2.0632    -0.6115 C.ar    
   7 C7             1.0700    -0.6823    -0.6013 C.ar    
   8 N8             0.0598    -4.1686    -0.0202 N.pl3   
   9 C9             0.5643    -4.8467    -1.1131 C.ar    
  10 N10            0.6644    -6.1658    -1.0545 N.ar    
  11 C11            1.1446    -6.8530    -2.0849 C.ar    
  12 C12            1.5452    -6.1485    -3.2413 C.ar    
  13 C13            1.4191    -4.7508    -3.2536 C.ar    
  14 N14            0.9262    -4.1516    -2.1859 N.ar    
  15 N15            1.2512    -8.2197    -2.0301 N.am    
  16 C16            1.7387    -8.9168    -3.0740 C.2     
  17 C17            2.1653    -8.2225    -4.2926 C.2     
  18 C18            2.0601    -6.8459    -4.3567 C.2     
  19 C19            0.8295    -8.9299    -0.8201 C.3     
  20 O20            1.8260   -10.1297    -3.0052 O.2     
  21 C21            2.6997    -8.9843    -5.4376 C.2     
  22 S22            2.8903   -10.7346    -5.5016 S.3     
  23 C23            1.2820     2.0146     0.7484 C.3     
  24 N24            3.1016    -8.4711    -6.5665 N.2     
  25 C25            3.5489    -9.3071    -7.4758 C.2     
  26 C26            3.5379   -10.5996    -7.1353 C.2     
  27 S27            5.8197    -8.4938    -8.7272 S.o2    
  28 C28            6.2505    -7.9618   -10.3508 C.ar    
  29 C29            6.1840    -6.6206   -10.6791 C.ar    
  30 C30            6.6604    -8.8849   -11.2946 C.ar    
  31 C31            6.9984    -8.4674   -12.5684 C.ar    
  32 C32            6.9260    -7.1270   -12.8984 C.ar    
  33 C33            6.5219    -6.2032   -11.9528 C.ar    
  34 O34            6.5520    -9.6982    -8.5473 O.2     
  35 O35            6.0653    -7.3580    -7.9095 O.2     
  36 C36            1.2988     3.5444     0.7066 C.3     
  37 N37            1.2915     3.9972    -0.6903 N.3     
  38 C38            0.0743     3.5579    -1.3845 C.3     
  39 C39            0.0210     2.0286    -1.4051 C.3     
  40 C40            4.0412    -8.8382    -8.8208 C.3     
  41 C41           -0.6498    -9.3026    -0.9368 C.3     
  42 F42           -0.8363   -10.1280    -2.0508 F       
  43 F43           -1.0524    -9.9807     0.2187 F       
  44 F44           -1.4134    -8.1397    -1.0850 F       
  45 H45           -0.8596     1.8575     0.5561 H       
  46 H46           -1.8000    -0.1722     1.0998 H       
  47 H47           -1.7910    -2.6331     1.0800 H       
  48 H48            1.8930    -2.5925    -1.0920 H       
  49 H49            1.8717    -0.1316    -1.0710 H       
  50 H50           -0.2890    -4.6625     0.7383 H       
  51 H51            1.7154    -4.1780    -4.1199 H       
  52 H52            2.3677    -6.3123    -5.2439 H       
  53 H53            1.4244    -9.8359    -0.7046 H       
  54 H54            0.9748    -8.2867     0.0479 H       
  55 H55            1.2716     1.6791     1.7855 H       
  56 H56            2.1699     1.6272     0.2488 H       
  57 H57            3.8677   -11.4203    -7.7551 H       
  58 H58            5.8676    -5.8990    -9.9405 H       
  59 H59            6.7169    -9.9321   -11.0368 H       
  60 H60            7.3193    -9.1885   -13.3056 H       
  61 H61            7.1904    -6.8009   -13.8935 H       
  62 H62            6.4654    -5.1560   -12.2107 H       
  63 H63            0.4177     3.9314     1.2184 H       
  64 H64            2.1972     3.9114     1.2027 H       
  65 H65            1.3980     4.9990    -0.7462 H       
  66 H66           -0.8010     3.9448    -0.8629 H       
  67 H67            0.0835     3.9347    -2.4073 H       
  68 H68            0.8890     1.6413    -1.9386 H       
  69 H69           -0.8903     1.7029    -1.9067 H       
  70 H70            3.8599    -9.6140    -9.5647 H       
  71 H71            3.5097    -7.9302    -9.1058 H       
@<TRIPOS>BOND
   1    1    2 1
   2    1   23 1
   3    1   39 1
   4    1   45 1
   5    2    3 ar
   6    2    7 ar
   7    3    4 ar
   8    3   46 1
   9    4    5 ar
  10    4   47 1
  11    5    6 ar
  12    5    8 1
  13    6    7 ar
  14    6   48 1
  15    7   49 1
  16    8    9 1
  17    8   50 1
  18    9   10 ar
  19    9   14 ar
  20   10   11 ar
  21   11   12 ar
  22   11   15 1
  23   12   13 ar
  24   12   18 1
  25   13   14 ar
  26   13   51 1
  27   15   16 am
  28   15   19 1
  29   16   17 1
  30   16   20 2
  31   17   18 2
  32   17   21 1
  33   18   52 1
  34   19   41 1
  35   19   53 1
  36   19   54 1
  37   21   22 1
  38   21   24 2
  39   22   26 1
  40   23   36 1
  41   23   55 1
  42   23   56 1
  43   24   25 1
  44   25   26 2
  45   25   40 1
  46   26   57 1
  47   27   28 1
  48   27   34 2
  49   27   35 2
  50   27   40 1
  51   28   29 ar
  52   28   30 ar
  53   29   33 ar
  54   29   58 1
  55   30   31 ar
  56   30   59 1
  57   31   32 ar
  58   31   60 1
  59   32   33 ar
  60   32   61 1
  61   33   62 1
  62   36   37 1
  63   36   63 1
  64   36   64 1
  65   37   38 1
  66   37   65 1
  67   38   39 1
  68   38   66 1
  69   38   67 1
  70   39   68 1
  71   39   69 1
  72   40   70 1
  73   40   71 1
  74   41   42 1
  75   41   43 1
  76   41   44 1

#	End of record

