#	Name: ASD05490258
#	Creating user name:	WinNT
#	Creation time:	15. 06. 2019 21:01

#	Modifying user name:	WinNT
#	Modification time:	15. 06. 2019 21:01

#	Program:	/corina/corina34_cracker 3.40 0067  02.08.2006

@<TRIPOS>MOLECULE
ASD05490258
  60   63    0    0    0
SMALL
NO_CHARGES


@<TRIPOS>ATOM
   1 N1             0.0809     1.3892     0.4348 N.ar    
   2 C2             0.0736     0.0641     0.4316 C.ar    
   3 C3             1.2475    -0.6557     0.2755 C.ar    
   4 C4             2.4484     0.0355     0.1202 C.ar    
   5 C5             2.4215     1.4317     0.1281 C.ar    
   6 C6             1.1986     2.0844     0.2904 C.ar    
   7 N7             3.6435    -0.6520    -0.0381 N.am    
   8 C8             3.6512    -2.1170    -0.0437 C.3     
   9 C9             3.5267    -2.6146    -1.4607 C.ar    
  10 C10            4.6504    -2.7147    -2.2592 C.ar    
  11 C11            4.5362    -3.1711    -3.5592 C.ar    
  12 C12            3.2984    -3.5278    -4.0602 C.ar    
  13 C13            2.1745    -3.4285    -3.2612 C.ar    
  14 C14            2.2893    -2.9763    -1.9602 C.ar    
  15 N15            1.1536     3.4759     0.3007 N.pl3   
  16 O16           -1.1019    -0.5985     0.5841 O.3     
  17 C17           -2.2790     0.1963     0.7413 C.3     
  18 N18            3.5975     2.1631    -0.0238 N.am    
  19 C19            4.7984     0.0298    -0.1874 C.2     
  20 C20            4.7738     1.5208    -0.1799 C.2     
  21 O21            5.8036     2.1515    -0.3134 O.2     
  22 C22           -3.4951    -0.7188     0.8983 C.3     
  23 C23           -4.7554     0.1322     1.0667 C.3     
  24 C24           -5.9714    -0.7829     1.2237 C.3     
  25 C25           -0.6122    -5.7159    -4.2693 C.3     
  26 N26            0.5829    -5.2423    -3.5471 N.3     
  27 C27            0.8248    -3.8170    -3.8075 C.3     
  28 C28           -1.5764    -6.3070    -3.2194 C.3     
  29 C29           -0.6352    -6.6512    -2.0351 C.3     
  30 C30            0.3897    -5.4917    -2.1027 C.3     
  31 O31            5.8480    -0.5653    -0.3268 O.2     
  32 F32            1.2286    -2.0065     0.2742 F       
  33 H33            4.5855    -2.4770     0.3871 H       
  34 H34            2.8127    -2.4870     0.5463 H       
  35 H35            5.6176    -2.4360    -1.8677 H       
  36 H36            5.4141    -3.2487    -4.1834 H       
  37 H37            3.2091    -3.8837    -5.0760 H       
  38 H38            1.4114    -2.8988    -1.3360 H       
  39 H39            1.9704     3.9884     0.1952 H       
  40 H40            0.3055     3.9329     0.4133 H       
  41 H41           -2.1787     0.8227     1.6277 H       
  42 H42           -2.4108     0.8282    -0.1370 H       
  43 H43            3.5706     3.1328    -0.0175 H       
  44 H44           -3.5953    -1.3451     0.0119 H       
  45 H45           -3.3633    -1.3507     1.7767 H       
  46 H46           -4.6551     0.7585     1.9531 H       
  47 H47           -4.8871     0.7641     0.1883 H       
  48 H48           -6.8693    -0.1767     1.3436 H       
  49 H49           -6.0717    -1.4093     0.3373 H       
  50 H50           -5.8397    -1.4148     2.1020 H       
  51 H51           -1.0897    -4.8817    -4.7833 H       
  52 H52           -0.3303    -6.4850    -4.9884 H       
  53 H53            0.0513    -3.2224    -3.3215 H       
  54 H54            0.8017    -3.6349    -4.8820 H       
  55 H55           -2.3193    -5.5681    -2.9191 H       
  56 H56           -2.0588    -7.2064    -3.6023 H       
  57 H57           -1.1771    -6.6388    -1.0894 H       
  58 H58           -0.1472    -7.6133    -2.1911 H       
  59 H59            1.3306    -5.7894    -1.6399 H       
  60 H60           -0.0100    -4.6030    -1.6143 H       
@<TRIPOS>BOND
   1    1    2 ar
   2    1    6 ar
   3    2    3 ar
   4    2   16 1
   5    3    4 ar
   6    3   32 1
   7    4    5 ar
   8    4    7 1
   9    5    6 ar
  10    5   18 1
  11    6   15 1
  12    7    8 1
  13    7   19 am
  14    8    9 1
  15    8   33 1
  16    8   34 1
  17    9   10 ar
  18    9   14 ar
  19   10   11 ar
  20   10   35 1
  21   11   12 ar
  22   11   36 1
  23   12   13 ar
  24   12   37 1
  25   13   14 ar
  26   13   27 1
  27   14   38 1
  28   15   39 1
  29   15   40 1
  30   16   17 1
  31   17   22 1
  32   17   41 1
  33   17   42 1
  34   18   20 am
  35   18   43 1
  36   19   20 1
  37   19   31 2
  38   20   21 2
  39   22   23 1
  40   22   44 1
  41   22   45 1
  42   23   24 1
  43   23   46 1
  44   23   47 1
  45   24   48 1
  46   24   49 1
  47   24   50 1
  48   25   26 1
  49   25   28 1
  50   25   51 1
  51   25   52 1
  52   26   27 1
  53   26   30 1
  54   27   53 1
  55   27   54 1
  56   28   29 1
  57   28   55 1
  58   28   56 1
  59   29   30 1
  60   29   57 1
  61   29   58 1
  62   30   59 1
  63   30   60 1

#	End of record

