#	Name: ASD07930643
#	Creating user name:	WinNT
#	Creation time:	15. 06. 2019 21:12

#	Modifying user name:	WinNT
#	Modification time:	15. 06. 2019 21:12

#	Program:	/corina/corina34_cracker 3.40 0067  02.08.2006

@<TRIPOS>MOLECULE
ASD07930643
  49   51    0    0    0
SMALL
NO_CHARGES


@<TRIPOS>ATOM
   1 C1             1.3694     0.7526    -1.5473 C.3     
   2 N2             2.3133    -2.0773    -1.4376 N.2     
   3 N3             0.0354    -2.5823    -1.3054 N.pl3   
   4 C4            -0.8997    -2.7429    -0.1870 C.3     
   5 C5            -1.5452    -1.3872     0.1315 C.3     
   6 S6            -0.2179    -0.1887     0.4723 S.o2    
   7 N7             0.8028    -0.3917    -0.8290 N.am    
   8 C8             1.0893    -1.6980    -1.1990 C.2     
   9 C9            -0.1434    -3.2502     1.0425 C.3     
  10 C10           -1.9705    -3.7338    -0.5646 C.ar    
  11 C11           -1.6886    -4.7477    -1.4613 C.ar    
  12 C12           -2.6781    -5.6614    -1.8087 C.ar    
  13 C13           -3.9455    -5.5526    -1.2540 C.ar    
  14 C14           -4.2222    -4.5375    -0.3582 C.ar    
  15 C15           -3.2350    -3.6320    -0.0088 C.ar    
  16 O16           -0.6968     1.1433     0.3467 O.2     
  17 O17            0.5510    -0.5938     1.5965 O.2     
  18 N18           -2.3960    -6.6894    -2.7172 N.am    
  19 C19           -3.3925    -7.2518    -3.4293 C.2     
  20 O20           -4.5198    -6.8024    -3.3570 O.2     
  21 C21           -3.1147    -8.4156    -4.2985 C.ar    
  22 N22           -1.8807    -8.9010    -4.3723 N.ar    
  23 F23           -3.5087    -2.6407     0.8673 F       
  24 C24           -1.5893    -9.9330    -5.1314 C.ar    
  25 C25           -2.5730   -10.5591    -5.8922 C.ar    
  26 C26           -3.8793   -10.0799    -5.8420 C.ar    
  27 C27           -4.1526    -8.9957    -5.0279 C.ar    
  28 F28           -0.4538    -4.8504    -1.9998 F       
  29 O29           -2.2620   -11.6241    -6.6740 O.3     
  30 C30           -0.8995   -12.0551    -6.6713 C.3     
  31 H31           -0.2606   -11.2421    -7.0161 H       
  32 H32           -0.6107   -12.3402    -5.6597 H       
  33 H33           -0.7881   -12.9117    -7.3360 H       
  34 H34            2.3184     1.0343    -1.0910 H       
  35 H35            1.5340     0.4816    -2.5902 H       
  36 H36            0.6774     1.5931    -1.4952 H       
  37 H37            3.0422    -1.4422    -1.3576 H       
  38 H38           -0.0844    -3.0999    -2.1170 H       
  39 H39           -2.1338    -1.0509    -0.7220 H       
  40 H40           -2.1877    -1.4827     1.0069 H       
  41 H41            0.6913    -2.5827     1.2566 H       
  42 H42           -0.8174    -3.2753     1.8988 H       
  43 H43            0.2346    -4.2539     0.8481 H       
  44 H44           -4.7153    -6.2608    -1.5226 H       
  45 H45           -5.2086    -4.4531     0.0733 H       
  46 H46           -1.4833    -6.9965    -2.8340 H       
  47 H47           -0.5741   -10.2999    -5.1659 H       
  48 H48           -4.6618   -10.5467    -6.4219 H       
  49 H49           -5.1547    -8.5980    -4.9644 H       
@<TRIPOS>BOND
   1    1    7 1
   2    1   34 1
   3    1   35 1
   4    1   36 1
   5    2    8 2
   6    2   37 1
   7    3    4 1
   8    3    8 1
   9    3   38 1
  10    4    5 1
  11    4    9 1
  12    4   10 1
  13    5    6 1
  14    5   39 1
  15    5   40 1
  16    6    7 am
  17    6   16 2
  18    6   17 2
  19    7    8 1
  20    9   41 1
  21    9   42 1
  22    9   43 1
  23   10   11 ar
  24   10   15 ar
  25   11   12 ar
  26   11   28 1
  27   12   13 ar
  28   12   18 1
  29   13   14 ar
  30   13   44 1
  31   14   15 ar
  32   14   45 1
  33   15   23 1
  34   18   19 am
  35   18   46 1
  36   19   20 2
  37   19   21 1
  38   21   22 ar
  39   21   27 ar
  40   22   24 ar
  41   24   25 ar
  42   24   47 1
  43   25   26 ar
  44   25   29 1
  45   26   27 ar
  46   26   48 1
  47   27   49 1
  48   29   30 1
  49   30   31 1
  50   30   32 1
  51   30   33 1

#	End of record

