#	Name: ASD03200035
#	Creating user name:	WinNT
#	Creation time:	15. 06. 2019 20:34

#	Modifying user name:	WinNT
#	Modification time:	15. 06. 2019 20:34

#	Program:	/corina/corina34_cracker 3.40 0067  02.08.2006

@<TRIPOS>MOLECULE
ASD03200035
  54   57    0    0    0
SMALL
NO_CHARGES


@<TRIPOS>ATOM
   1 C1             0.6676    -2.4975    -0.0401 C.3     
   2 N2             0.1980    -1.1694     0.3747 N.3     
   3 C3             0.6951    -0.8244     1.7126 C.3     
   4 C4             2.2246    -0.7771     1.6935 C.3     
   5 C5             2.7673    -2.1428     1.2635 C.3     
   6 C6             2.1963    -2.5002    -0.1116 C.3     
   7 C7            -1.1930    -1.0929     0.3234 C.ar    
   8 C8            -1.9440    -0.9416     1.4865 C.ar    
   9 C9            -3.3192    -0.8693     1.3940 C.ar    
  10 N10           -3.9259    -0.9413     0.2244 N.ar    
  11 C11           -3.2549    -1.0846    -0.9031 C.ar    
  12 C12           -1.8719    -1.1600    -0.8991 C.ar    
  13 N13           -1.1640    -1.3121    -2.0990 N.am    
  14 C14           -1.6889    -2.0415    -3.1034 C.2     
  15 C15           -0.9100    -2.2790    -4.3207 C.2     
  16 O16           -2.8108    -2.5031    -2.9987 O.2     
  17 C17           -1.4256    -2.9260    -5.4210 C.2     
  18 S18           -0.1663    -2.9986    -6.6511 S.3     
  19 C19            0.9434    -2.1527    -5.5786 C.2     
  20 N20            0.3567    -1.8810    -4.4571 N.2     
  21 C21            2.3384    -1.7993    -5.9117 C.ar    
  22 N22            2.7222    -0.4526     3.0370 N.3     
  23 N23           -2.7057    -3.4300    -5.5399 N.pl3   
  24 C24            2.9031    -2.2309    -7.1157 C.ar    
  25 C25            4.2075    -1.8977    -7.4222 C.ar    
  26 C26            4.9584    -1.1360    -6.5369 C.ar    
  27 C27            4.4025    -0.7048    -5.3399 C.ar    
  28 C28            3.0969    -1.0272    -5.0265 C.ar    
  29 F29            2.5571    -0.6071    -3.8615 F       
  30 F30            2.1738    -2.9729    -7.9776 F       
  31 O31            6.2416    -0.8117    -6.8428 O.3     
  32 C32            6.9575    -0.0258    -5.8878 C.3     
  33 H33            0.3365    -3.2422     0.6838 H       
  34 H34            0.2577    -2.7377    -1.0211 H       
  35 H35            0.3053     0.1507     2.0046 H       
  36 H36            0.3640    -1.5769     2.4283 H       
  37 H37            2.5564    -0.0152     0.9881 H       
  38 H38            3.8550    -2.1011     1.2066 H       
  39 H39            2.4683    -2.8987     1.9897 H       
  40 H40            2.5451    -3.4905    -0.4043 H       
  41 H41            2.5275    -1.7654    -0.8454 H       
  42 H42           -1.4566    -0.8821     2.4484 H       
  43 H43           -3.9074    -0.7524     2.2922 H       
  44 H44           -3.7899    -1.1397    -1.8396 H       
  45 H45           -0.2961    -0.8924    -2.2066 H       
  46 H46            3.7297    -0.4952     3.0696 H       
  47 H47            2.3886     0.4510     3.3376 H       
  48 H48           -3.3319    -3.3416    -4.8044 H       
  49 H49           -2.9787    -3.8723    -6.3589 H       
  50 H50            4.6447    -2.2306    -8.3520 H       
  51 H51            4.9908    -0.1125    -4.6548 H       
  52 H52            6.4428     0.9236    -5.7397 H       
  53 H53            7.0089    -0.5629    -4.9407 H       
  54 H54            7.9667     0.1613    -6.2547 H       
@<TRIPOS>BOND
   1    1    2 1
   2    1    6 1
   3    1   33 1
   4    1   34 1
   5    2    3 1
   6    2    7 1
   7    3    4 1
   8    3   35 1
   9    3   36 1
  10    4    5 1
  11    4   22 1
  12    4   37 1
  13    5    6 1
  14    5   38 1
  15    5   39 1
  16    6   40 1
  17    6   41 1
  18    7    8 ar
  19    7   12 ar
  20    8    9 ar
  21    8   42 1
  22    9   10 ar
  23    9   43 1
  24   10   11 ar
  25   11   12 ar
  26   11   44 1
  27   12   13 1
  28   13   14 am
  29   13   45 1
  30   14   15 1
  31   14   16 2
  32   15   17 2
  33   15   20 1
  34   17   18 1
  35   17   23 1
  36   18   19 1
  37   19   20 2
  38   19   21 1
  39   21   24 ar
  40   21   28 ar
  41   22   46 1
  42   22   47 1
  43   23   48 1
  44   23   49 1
  45   24   25 ar
  46   24   30 1
  47   25   26 ar
  48   25   50 1
  49   26   27 ar
  50   26   31 1
  51   27   28 ar
  52   27   51 1
  53   28   29 1
  54   31   32 1
  55   32   52 1
  56   32   53 1
  57   32   54 1

#	End of record

