#	Name: ASD01230232
#	Creating user name:	WinNT
#	Creation time:	15. 06. 2019 19:12

#	Modifying user name:	WinNT
#	Modification time:	15. 06. 2019 19:12

#	Program:	/corina/corina34_cracker 3.40 0067  02.08.2006

@<TRIPOS>MOLECULE
ASD01230232
  28   30    0    0    0
SMALL
NO_CHARGES


@<TRIPOS>ATOM
   1 C1            -0.0169     1.3935     0.0097 C.ar    
   2 C2             0.0021    -0.0041     0.0020 C.ar    
   3 C3             1.1968    -0.6889    -0.0384 C.ar    
   4 C4             2.3985     0.0025    -0.0722 C.ar    
   5 C5             2.3894     1.3897    -0.0521 C.ar    
   6 C6             1.1923     2.0725     0.0018 C.ar    
   7 N7            -1.2575     2.0212    -0.0128 N.3     
   8 S8             1.2035     3.8398     0.0946 S.o2    
   9 N9            -0.4083     4.2596    -0.0386 N.am    
  10 C10           -1.3468     3.3291     0.6234 C.3     
  11 O11            1.6122     4.1818     1.4119 O.2     
  12 O12            1.8517     4.3111    -1.0788 O.2     
  13 O13            3.5771    -0.6742    -0.1242 O.3     
  14 C14           -2.3108     1.1234     0.4795 C.3     
  15 C15           -3.7193     1.7018     0.6290 C.3     
  16 C16           -3.4117     0.7200    -0.5034 C.3     
  17 H17           -0.9282    -0.5520     0.0283 H       
  18 H18            1.1976    -1.7689    -0.0434 H       
  19 H19            3.3209     1.9355    -0.0780 H       
  20 H20           -0.7049     5.0517    -0.5134 H       
  21 H21           -2.3636     3.7104     0.5301 H       
  22 H22           -1.0867     3.2391     1.6780 H       
  23 H23            3.8860    -0.8576    -1.0220 H       
  24 H24           -1.9916     0.3806     1.2106 H       
  25 H25           -4.3269     1.3394     1.4582 H       
  26 H26           -3.8645     2.7486     0.3620 H       
  27 H27           -3.3545     1.1209    -1.5154 H       
  28 H28           -3.8169    -0.2883    -0.4192 H       
@<TRIPOS>BOND
   1    1    2 ar
   2    1    6 ar
   3    1    7 1
   4    2    3 ar
   5    2   17 1
   6    3    4 ar
   7    3   18 1
   8    4    5 ar
   9    4   13 1
  10    5    6 ar
  11    5   19 1
  12    6    8 1
  13    7   10 1
  14    7   14 1
  15    8    9 am
  16    8   11 2
  17    8   12 2
  18    9   10 1
  19    9   20 1
  20   10   21 1
  21   10   22 1
  22   13   23 1
  23   14   15 1
  24   14   16 1
  25   14   24 1
  26   15   16 1
  27   15   25 1
  28   15   26 1
  29   16   27 1
  30   16   28 1

#	End of record

