#	Name: ASD02508043
#	Creating user name:	WinNT
#	Creation time:	15. 06. 2019 20:23

#	Modifying user name:	WinNT
#	Modification time:	15. 06. 2019 20:23

#	Program:	/corina/corina34_cracker 3.40 0067  02.08.2006

@<TRIPOS>MOLECULE
ASD02508043
  37   39    0    0    0
SMALL
NO_CHARGES


@<TRIPOS>ATOM
   1 C1             0.1932     1.2936    -0.9756 C.ar    
   2 C2             0.6841     0.3553    -1.8696 C.ar    
   3 C3             0.8784     1.5575     0.2103 C.ar    
   4 C4             2.0527     0.8786     0.4931 C.ar    
   5 C5             2.5413    -0.0600    -0.4039 C.ar    
   6 C6             1.8554    -0.3204    -1.5853 C.ar    
   7 N7            -0.9306     2.1237    -0.9794 N.am    
   8 C8            -0.9078     2.8403     0.1618 C.2     
   9 O9             0.1761     2.5052     0.8789 O.3     
  10 N10            3.7275    -0.7464    -0.1192 N.am    
  11 S11            4.9610     0.0248     0.6719 S.o2    
  12 C12            5.4443     1.3947    -0.3253 C.ar    
  13 C13            5.9877     1.1798    -1.5837 C.ar    
  14 C14            5.2773     2.6833     0.1430 C.ar    
  15 C15            5.6564     3.7596    -0.6400 C.ar    
  16 C16            6.2036     3.5472    -1.8928 C.ar    
  17 C17            6.3674     2.2598    -2.3668 C.ar    
  18 C18           -1.9470     2.2015    -2.0316 C.3     
  19 O19           -1.7384     3.6660     0.4890 O.2     
  20 Cl20           2.4718    -1.4956    -2.7045 Cl      
  21 O21            4.3985     0.5701     1.8574 O.2     
  22 O22            6.0601    -0.8759     0.6762 O.2     
  23 Cl23           5.4444     5.3783    -0.0497 Cl      
  24 O24            6.1480    -0.0874    -2.0483 O.3     
  25 C25            6.7137    -0.2335    -3.3525 C.3     
  26 H26            0.1517     0.1523    -2.7871 H       
  27 H27            2.5867     1.0800     1.4100 H       
  28 H28            3.8269    -1.6739    -0.3854 H       
  29 H29            4.8503     2.8511     1.1207 H       
  30 H30            6.4988     4.3884    -2.5024 H       
  31 H31            6.7950     2.0944    -3.3447 H       
  32 H32           -2.7428     1.4869    -1.8215 H       
  33 H33           -2.3620     3.2090    -2.0620 H       
  34 H34           -1.4924     1.9666    -2.9940 H       
  35 H35            6.0781     0.2678    -4.0824 H       
  36 H36            7.7080     0.2126    -3.3693 H       
  37 H37            6.7863    -1.2925    -3.6004 H       
@<TRIPOS>BOND
   1    1    2 ar
   2    1    3 ar
   3    1    7 1
   4    2    6 ar
   5    2   26 1
   6    3    4 ar
   7    3    9 1
   8    4    5 ar
   9    4   27 1
  10    5    6 ar
  11    5   10 1
  12    6   20 1
  13    7    8 am
  14    7   18 1
  15    8    9 1
  16    8   19 2
  17   10   11 am
  18   10   28 1
  19   11   12 1
  20   11   21 2
  21   11   22 2
  22   12   13 ar
  23   12   14 ar
  24   13   24 1
  25   13   17 ar
  26   14   15 ar
  27   14   29 1
  28   15   16 ar
  29   15   23 1
  30   16   17 ar
  31   16   30 1
  32   17   31 1
  33   18   32 1
  34   18   33 1
  35   18   34 1
  36   24   25 1
  37   25   35 1
  38   25   36 1
  39   25   37 1

#	End of record

