#	Name: ASD02030201
#	Creating user name:	WinNT
#	Creation time:	15. 06. 2019 20:14

#	Modifying user name:	WinNT
#	Modification time:	15. 06. 2019 20:14

#	Program:	/corina/corina34_cracker 3.40 0067  02.08.2006

@<TRIPOS>MOLECULE
ASD02030201
  58   62    0    0    0
SMALL
NO_CHARGES


@<TRIPOS>ATOM
   1 N1            -0.0162     1.3641     0.1734 N.am    
   2 C2            -0.0666    -0.1020     0.0843 C.3     
   3 C3            -1.1231    -0.6169     1.0697 C.3     
   4 N4            -2.3624     0.1478     0.8714 N.am    
   5 C5            -2.3120     1.6138     0.9605 C.3     
   6 C6            -1.2566     2.1284    -0.0194 C.3     
   7 C7             1.1456     1.9960     0.4327 C.2     
   8 C8             2.3529     1.2134     0.7726 C.2     
   9 N9             3.5716     1.6903     0.9071 N.2     
  10 N10            2.3978    -0.1113     1.0048 N.2     
  11 C11            3.6420    -0.4175     1.2711 C.2     
  12 N12            4.3645     0.7197     1.2064 N.pl3   
  13 O13            1.2008     3.2095     0.3871 O.2     
  14 C14           -3.5242    -0.4842     0.6121 C.2     
  15 C15           -3.5595    -1.9519     0.5253 C.2     
  16 O16           -4.5437     0.1594     0.4497 O.2     
  17 C17           -0.9929     3.6126     0.2426 C.3     
  18 C18           -1.7514     1.9367    -1.4544 C.3     
  19 C19            5.7444     0.8273     1.4264 C.ar    
  20 C20            6.3697     2.0625     1.3286 C.ar    
  21 C21            7.7321     2.1652     1.5463 C.ar    
  22 C22            8.4703     1.0366     1.8614 C.ar    
  23 C23            7.8481    -0.1943     1.9590 C.ar    
  24 C24            6.4874    -0.3010     1.7482 C.ar    
  25 F25            8.3426     3.3666     1.4511 F       
  26 C26           -3.3730    -2.7138    -0.5864 C.2     
  27 O27           -3.4785    -4.0100    -0.2719 O.3     
  28 C28           -3.7363    -4.1772     1.0422 C.ar    
  29 C29           -3.7985    -2.9047     1.6278 C.ar    
  30 C30           -3.9282    -5.3014     1.8363 C.ar    
  31 C31           -4.1819    -5.1585     3.1834 C.ar    
  32 C32           -4.2491    -3.8973     3.7610 C.ar    
  33 C33           -4.0534    -2.7699     2.9888 C.ar    
  34 F34           -4.4991    -3.7738     5.0829 F       
  35 C35           -3.0905    -2.1778    -1.9663 C.3     
  36 H36           -0.3368    -0.3978    -0.9294 H       
  37 H37            0.9075    -0.5178     0.3420 H       
  38 H38           -1.3119    -1.6742     0.8841 H       
  39 H39           -0.7682    -0.4798     2.0911 H       
  40 H40           -3.2861     2.0297     0.7028 H       
  41 H41           -2.0418     1.9097     1.9742 H       
  42 H42            4.0211    -1.4018     1.5033 H       
  43 H43           -0.5223     3.7312     1.2185 H       
  44 H44           -0.3321     4.0060    -0.5298 H       
  45 H45           -1.9366     4.1578     0.2256 H       
  46 H46           -2.6785     2.4919    -1.5963 H       
  47 H47           -0.9976     2.3041    -2.1508 H       
  48 H48           -1.9305     0.8773    -1.6385 H       
  49 H49            5.7936     2.9422     1.0825 H       
  50 H50            9.5339     1.1180     2.0308 H       
  51 H51            8.4263    -1.0728     2.2049 H       
  52 H52            6.0028    -1.2632     1.8248 H       
  53 H53           -3.8788    -6.2871     1.3977 H       
  54 H54           -4.3302    -6.0358     3.7957 H       
  55 H55           -4.1052    -1.7887     3.4371 H       
  56 H56           -2.0136    -2.0832    -2.1059 H       
  57 H57           -3.4948    -2.8624    -2.7118 H       
  58 H58           -3.5587    -1.2000    -2.0791 H       
@<TRIPOS>BOND
   1    1    2 1
   2    1    7 am
   3    1    6 1
   4    2    3 1
   5    2   36 1
   6    2   37 1
   7    3    4 1
   8    3   38 1
   9    3   39 1
  10    4    5 1
  11    4   14 am
  12    5    6 1
  13    5   40 1
  14    5   41 1
  15    6   17 1
  16    6   18 1
  17    7    8 1
  18    7   13 2
  19    8    9 2
  20    8   10 1
  21    9   12 1
  22   10   11 2
  23   11   12 1
  24   11   42 1
  25   12   19 1
  26   14   15 1
  27   14   16 2
  28   15   26 2
  29   15   29 1
  30   17   43 1
  31   17   44 1
  32   17   45 1
  33   18   46 1
  34   18   47 1
  35   18   48 1
  36   19   20 ar
  37   19   24 ar
  38   20   21 ar
  39   20   49 1
  40   21   22 ar
  41   21   25 1
  42   22   23 ar
  43   22   50 1
  44   23   24 ar
  45   23   51 1
  46   24   52 1
  47   26   27 1
  48   26   35 1
  49   27   28 1
  50   28   29 ar
  51   28   30 ar
  52   29   33 ar
  53   30   31 ar
  54   30   53 1
  55   31   32 ar
  56   31   54 1
  57   32   33 ar
  58   32   34 1
  59   33   55 1
  60   35   56 1
  61   35   57 1
  62   35   58 1

#	End of record

