#	Name: ASD02198026
#	Creating user name:	WinNT
#	Creation time:	15. 06. 2019 20:18

#	Modifying user name:	WinNT
#	Modification time:	15. 06. 2019 20:18

#	Program:	/corina/corina34_cracker 3.40 0067  02.08.2006

@<TRIPOS>MOLECULE
ASD02198026
  36   38    0    0    0
SMALL
NO_CHARGES


@<TRIPOS>ATOM
   1 N1             0.3657     0.7933     0.2174 N.pl3   
   2 C2             0.3711    -0.5799     0.1313 C.2     
   3 C3            -0.7573    -1.3711     0.1823 C.2     
   4 C4            -2.0779    -0.8385     0.3334 C.1     
   5 S5             1.7728    -1.5312    -0.0602 S.3     
   6 C6             0.8413    -3.0201    -0.0663 C.2     
   7 C7            -0.4966    -2.7352     0.0733 C.2     
   8 C8             1.3834    -4.3128    -0.1985 C.2     
   9 O9             0.6660    -5.2907    -0.0720 O.2     
  10 C10            2.8236    -4.4847    -0.4910 C.ar    
  11 N11           -1.4850    -3.7064     0.1044 N.pl3   
  12 C12            1.5726     1.4929     0.3004 C.ar    
  13 C13            1.7094     2.7225    -0.3317 C.ar    
  14 N14           -3.1256    -0.4159     0.4532 N.1     
  15 C15            2.9033     3.4114    -0.2473 C.ar    
  16 C16            3.9620     2.8786     0.4655 C.ar    
  17 C17            3.8292     1.6549     1.0959 C.ar    
  18 C18            2.6363     0.9632     1.0199 C.ar    
  19 C19            3.4895    -5.6394    -0.0772 C.ar    
  20 C20            4.8318    -5.7943    -0.3531 C.ar    
  21 C21            5.5191    -4.8066    -1.0390 C.ar    
  22 C22            4.8636    -3.6584    -1.4517 C.ar    
  23 C23            3.5200    -3.4953    -1.1869 C.ar    
  24 Cl24           7.2089    -5.0083    -1.3822 Cl      
  25 H25           -0.4756     1.2761     0.2165 H       
  26 H26           -1.2469    -4.6434     0.0257 H       
  27 H27           -2.4148    -3.4491     0.2050 H       
  28 H28            0.8832     3.1389    -0.8888 H       
  29 H29            3.0105     4.3671    -0.7387 H       
  30 H30            4.8947     3.4193     0.5296 H       
  31 H31            4.6579     1.2417     1.6516 H       
  32 H32            2.5333     0.0076     1.5124 H       
  33 H33            2.9548    -6.4099     0.4583 H       
  34 H34            5.3482    -6.6874    -0.0334 H       
  35 H35            5.4047    -2.8914    -1.9858 H       
  36 H36            3.0099    -2.5996    -1.5091 H       
@<TRIPOS>BOND
   1    1    2 1
   2    1   12 1
   3    1   25 1
   4    2    3 2
   5    2    5 1
   6    3    4 1
   7    3    7 1
   8    4   14 3
   9    5    6 1
  10    6    7 2
  11    6    8 1
  12    7   11 1
  13    8    9 2
  14    8   10 1
  15   10   19 ar
  16   10   23 ar
  17   11   26 1
  18   11   27 1
  19   12   13 ar
  20   12   18 ar
  21   13   15 ar
  22   13   28 1
  23   15   16 ar
  24   15   29 1
  25   16   17 ar
  26   16   30 1
  27   17   18 ar
  28   17   31 1
  29   18   32 1
  30   19   20 ar
  31   19   33 1
  32   20   21 ar
  33   20   34 1
  34   21   22 ar
  35   21   24 1
  36   22   23 ar
  37   22   35 1
  38   23   36 1

#	End of record

