#	Name: ASD06170144
#	Creating user name:	WinNT
#	Creation time:	15. 06. 2019 21:05

#	Modifying user name:	WinNT
#	Modification time:	15. 06. 2019 21:05

#	Program:	/corina/corina34_cracker 3.40 0067  02.08.2006

@<TRIPOS>MOLECULE
ASD06170144
  85   90    0    0    0
SMALL
NO_CHARGES


@<TRIPOS>ATOM
   1 N1             0.2467    -1.7901     0.2315 N.pl3   
   2 N2             0.5570    -0.6058    -0.4436 N.am    
   3 C3             1.8995    -0.4895    -0.5121 C.2     
   4 C4             2.4566    -1.6732     0.1614 C.2     
   5 C5             1.3794    -2.4237     0.5907 C.2     
   6 C6             3.8777    -1.9935     0.3417 C.2     
   7 O7             4.2029    -3.0129     0.9214 O.2     
   8 N8             4.8224    -1.1587    -0.1349 N.am    
   9 C9            -0.3690     0.3052    -0.9620 C.ar    
  10 C10           -1.3929     0.7900    -0.1586 C.ar    
  11 C11           -2.3054     1.6899    -0.6734 C.ar    
  12 C12           -2.2004     2.1082    -1.9872 C.ar    
  13 C13           -1.1824     1.6271    -2.7899 C.ar    
  14 C14           -0.2632     0.7314    -2.2796 C.ar    
  15 O15            2.5263     0.4164    -1.0291 O.2     
  16 C16            1.4584    -3.7311     1.3360 C.3     
  17 C17           -1.1095    -2.2677     0.5122 C.3     
  18 C18           -1.6060    -3.1127    -0.6627 C.3     
  19 C19           -0.6741    -4.3101    -0.8594 C.3     
  20 C20           -3.0224    -3.6115    -0.3695 C.3     
  21 O21           -1.6172    -2.3176    -1.8500 O.3     
  22 C22            6.1752    -1.4114     0.1240 C.ar    
  23 C23            6.6405    -2.7191     0.1733 C.ar    
  24 C24            7.9760    -2.9674     0.4290 C.ar    
  25 C25            8.8519    -1.9085     0.6364 C.ar    
  26 C26            8.3861    -0.6035     0.5874 C.ar    
  27 C27            7.0526    -0.3546     0.3258 C.ar    
  28 F28            8.4296    -4.2391     0.4777 F       
  29 O29           10.1659    -2.1524     0.8880 O.3     
  30 C30           13.2122    -2.6568    -1.0923 C.ar    
  31 C31           12.3816    -2.4769     0.0173 C.ar    
  32 C32           10.9958    -2.3277    -0.1717 C.ar    
  33 C33           10.4966    -2.3640    -1.4636 C.ar    
  34 C34           11.3753    -2.5453    -2.5211 C.ar    
  35 N35           12.6619    -2.6824    -2.3251 N.ar    
  36 C36           14.5642    -2.7844    -0.7363 C.2     
  37 C37           14.8262    -2.7142     0.5736 C.2     
  38 S38           13.3462    -2.4828     1.4881 S.3     
  39 C39           16.1689    -2.8231     1.1663 C.2     
  40 O40           17.1474    -2.8912     0.4472 O.2     
  41 N41           16.3141    -2.8473     2.5060 N.am    
  42 C42           15.2188    -2.8762     3.4862 C.3     
  43 C43           15.8599    -2.8707     4.8900 C.3     
  44 C44           17.2653    -2.2680     4.6278 C.3     
  45 C45           17.5977    -2.8556     3.2310 C.3     
  46 N46           15.0924    -2.0192     5.8086 N.3     
  47 C47           13.7204    -2.5196     5.9680 C.3     
  48 C48           15.7661    -1.9066     7.1091 C.3     
  49 H49            4.5652    -0.3829    -0.6572 H       
  50 H50           -1.4757     0.4634     0.8675 H       
  51 H51           -3.1021     2.0669    -0.0492 H       
  52 H52           -2.9152     2.8120    -2.3874 H       
  53 H53           -1.1033     1.9555    -3.8157 H       
  54 H54            0.5343     0.3595    -2.9057 H       
  55 H55            1.4759    -4.5553     0.6229 H       
  56 H56            2.3671    -3.7520     1.9377 H       
  57 H57            0.5896    -3.8317     1.9864 H       
  58 H58           -1.1009    -2.8741     1.4179 H       
  59 H59           -1.7733    -1.4146     0.6524 H       
  60 H60           -0.6655    -4.9165     0.0462 H       
  61 H61           -1.0278    -4.9120    -1.6965 H       
  62 H62            0.3350    -3.9547    -1.0683 H       
  63 H63           -3.6862    -2.7584    -0.2293 H       
  64 H64           -3.3761    -4.2135    -1.2065 H       
  65 H65           -3.0138    -4.2179     0.5362 H       
  66 H66           -2.1885    -1.5392    -1.7968 H       
  67 H67            5.9592    -3.5414     0.0124 H       
  68 H68            9.0671     0.2189     0.7493 H       
  69 H69            6.6917     0.6624     0.2830 H       
  70 H70            9.4377    -2.2531    -1.6446 H       
  71 H71           10.9890    -2.5745    -3.5292 H       
  72 H72           15.3417    -2.9300    -1.4717 H       
  73 H73           14.5880    -1.9958     3.3633 H       
  74 H74           14.6259    -3.7811     3.3530 H       
  75 H75           15.9420    -3.8851     5.2804 H       
  76 H76           17.2241    -1.1792     4.5976 H       
  77 H77           17.9824    -2.6097     5.3742 H       
  78 H78           17.9737    -3.8743     3.3252 H       
  79 H79           18.3266    -2.2271     2.7192 H       
  80 H80           13.7475    -3.5322     6.3704 H       
  81 H81           13.1744    -1.8709     6.6529 H       
  82 H82           13.2214    -2.5269     4.9989 H       
  83 H83           16.7543    -1.4684     6.9696 H       
  84 H84           15.1767    -1.2710     7.7698 H       
  85 H85           15.8673    -2.8971     7.5528 H       
@<TRIPOS>BOND
   1    1    2 1
   2    1    5 1
   3    1   17 1
   4    2    3 am
   5    2    9 1
   6    3    4 1
   7    3   15 2
   8    4    5 2
   9    4    6 1
  10    5   16 1
  11    6    7 2
  12    6    8 am
  13    8   22 1
  14    8   49 1
  15    9   10 ar
  16    9   14 ar
  17   10   11 ar
  18   10   50 1
  19   11   12 ar
  20   11   51 1
  21   12   13 ar
  22   12   52 1
  23   13   14 ar
  24   13   53 1
  25   14   54 1
  26   16   55 1
  27   16   56 1
  28   16   57 1
  29   17   18 1
  30   17   58 1
  31   17   59 1
  32   18   19 1
  33   18   20 1
  34   18   21 1
  35   19   60 1
  36   19   61 1
  37   19   62 1
  38   20   63 1
  39   20   64 1
  40   20   65 1
  41   21   66 1
  42   22   23 ar
  43   22   27 ar
  44   23   24 ar
  45   23   67 1
  46   24   25 ar
  47   24   28 1
  48   25   26 ar
  49   25   29 1
  50   26   27 ar
  51   26   68 1
  52   27   69 1
  53   29   32 1
  54   30   31 ar
  55   30   35 ar
  56   30   36 1
  57   31   32 ar
  58   31   38 1
  59   32   33 ar
  60   33   34 ar
  61   33   70 1
  62   34   35 ar
  63   34   71 1
  64   36   37 2
  65   36   72 1
  66   37   38 1
  67   37   39 1
  68   39   40 2
  69   39   41 am
  70   41   42 1
  71   41   45 1
  72   42   43 1
  73   42   73 1
  74   42   74 1
  75   43   44 1
  76   43   46 1
  77   43   75 1
  78   44   45 1
  79   44   76 1
  80   44   77 1
  81   45   78 1
  82   45   79 1
  83   46   47 1
  84   46   48 1
  85   47   80 1
  86   47   81 1
  87   47   82 1
  88   48   83 1
  89   48   84 1
  90   48   85 1

#	End of record

