#	Name: ASD00111021
#	Creating user name:	WinNT
#	Creation time:	15. 06. 2019 18:30

#	Modifying user name:	WinNT
#	Modification time:	15. 06. 2019 18:30

#	Program:	/corina/corina34_cracker 3.40 0067  02.08.2006

@<TRIPOS>MOLECULE
ASD00111021
  37   38    0    0    0
SMALL
NO_CHARGES


@<TRIPOS>ATOM
   1 C1             0.0188     1.4145     0.1006 C.ar    
   2 C2             0.0520     0.0267     0.1052 C.ar    
   3 C3            -1.1349    -0.6860     0.1053 C.ar    
   4 C4            -2.3537    -0.0218     0.1011 C.ar    
   5 C5            -2.3858     1.3527     0.0745 C.ar    
   6 C6            -1.1951     2.0698     0.0903 C.ar    
   7 C7            -3.6074    -0.8545     0.1561 C.3     
   8 C8            -4.5952    -0.4145    -0.9279 C.3     
   9 N9            -5.5008     0.5743    -0.3397 N.3     
  10 C10           -4.8187     1.3888     0.6743 C.3     
  11 C11           -3.6700     2.1424     0.0059 C.3     
  12 Cl12           1.4988     2.3217     0.1149 Cl      
  13 C13           -3.4718     3.4844     0.7134 C.3     
  14 C14           -4.7029     4.3651     0.4905 C.3     
  15 C15           -3.2791     3.2471     2.2125 C.3     
  16 O16            1.2429    -0.6286     0.1092 O.3     
  17 C17            1.1975    -2.0569     0.1138 C.3     
  18 H18           -1.1124    -1.7658     0.1083 H       
  19 H19           -1.2205     3.1495     0.0863 H       
  20 H20           -3.3497    -1.9025     0.0033 H       
  21 H21           -4.0730    -0.7388     1.1348 H       
  22 H22           -4.0529     0.0322    -1.7612 H       
  23 H23           -5.1659    -1.2748    -1.2775 H       
  24 H24           -5.9135     1.1562    -1.0532 H       
  25 H25           -5.5223     2.1016     1.1044 H       
  26 H26           -4.4246     0.7422     1.4582 H       
  27 H27           -3.9221     2.3243    -1.0389 H       
  28 H28           -2.5908     3.9822     0.3081 H       
  29 H29           -5.5945     3.8345     0.8245 H       
  30 H30           -4.5961     5.2893     1.0585 H       
  31 H31           -4.7952     4.5990    -0.5701 H       
  32 H32           -2.4583     2.5466     2.3669 H       
  33 H33           -3.0471     4.1924     2.7031 H       
  34 H34           -4.1944     2.8332     2.6355 H       
  35 H35            0.6710    -2.4008     1.0042 H       
  36 H36            0.6737    -2.4066    -0.7758 H       
  37 H37            2.2131    -2.4527     0.1167 H       
@<TRIPOS>BOND
   1    1    2 ar
   2    1   12 1
   3    1    6 ar
   4    2    3 ar
   5    2   16 1
   6    3    4 ar
   7    3   18 1
   8    4    5 ar
   9    4    7 1
  10    5    6 ar
  11    5   11 1
  12    6   19 1
  13    7    8 1
  14    7   20 1
  15    7   21 1
  16    8    9 1
  17    8   22 1
  18    8   23 1
  19    9   10 1
  20    9   24 1
  21   10   11 1
  22   10   25 1
  23   10   26 1
  24   11   13 1
  25   11   27 1
  26   13   14 1
  27   13   15 1
  28   13   28 1
  29   14   29 1
  30   14   30 1
  31   14   31 1
  32   15   32 1
  33   15   33 1
  34   15   34 1
  35   16   17 1
  36   17   35 1
  37   17   36 1
  38   17   37 1

#	End of record

