#	Name: ASD08170106
#	Creating user name:	WinNT
#	Creation time:	15. 06. 2019 21:17

#	Modifying user name:	WinNT
#	Modification time:	15. 06. 2019 21:17

#	Program:	/corina/corina34_cracker 3.40 0067  02.08.2006

@<TRIPOS>MOLECULE
ASD08170106
  52   53    0    0    0
SMALL
NO_CHARGES


@<TRIPOS>ATOM
   1 C1            -0.0187     1.5258     0.0104 C.3     
   2 C2             0.0021    -0.0041     0.0020 C.3     
   3 C3             1.4167     2.0553    -0.0004 C.3     
   4 C4             1.3960     3.5852     0.0080 C.3     
   5 C5             2.8098     4.1068    -0.0027 C.2     
   6 C6            -1.4117    -0.5257     0.0127 C.2     
   7 S7             3.7994     4.4593     1.4143 S.3     
   8 C8             5.0770     4.9390     0.3786 C.2     
   9 N9             4.6867     4.8059    -0.8531 N.2     
  10 N10            3.5185     4.3715    -1.0541 N.2     
  11 S11           -2.3742    -0.8935     1.4445 S.3     
  12 N12           -2.1404    -0.7792    -1.0277 N.2     
  13 N13           -3.3061    -1.2119    -0.8091 N.2     
  14 C14           -3.6713    -1.3622     0.4283 C.2     
  15 N15           -4.9107    -1.8251     0.8572 N.am    
  16 C16           -5.8536    -2.1613    -0.0452 C.2     
  17 O17           -5.6213    -2.0602    -1.2312 O.2     
  18 N18            6.3249     5.3958     0.7887 N.am    
  19 C19            7.2495     5.7444    -0.1278 C.2     
  20 C20            8.6017     6.2394     0.3166 C.3     
  21 O21            6.9932     5.6598    -1.3102 O.2     
  22 C22           -7.1965    -2.6628     0.4196 C.3     
  23 C23            9.4547     6.5642    -0.9114 C.3     
  24 C24           -8.0742    -2.9709    -0.7952 C.3     
  25 C25           -9.3702    -3.5871    -0.3353 C.2     
  26 C26           10.7600     7.1739    -0.4693 C.2     
  27 O27           10.7689     8.3647     0.1502 O.3     
  28 O28           11.7986     6.5909    -0.6724 O.2     
  29 O29            9.7131     5.3641    -1.6429 O.3     
  30 O30          -10.4128    -3.0016    -0.5093 O.2     
  31 O31           -9.3665    -4.7863     0.2677 O.3     
  32 O32           -8.3474    -1.7609    -1.5046 O.3     
  33 H33           -0.5459     1.8868    -0.8726 H       
  34 H34           -0.5289     1.8773     0.9072 H       
  35 H35            0.5123    -0.3556    -0.8948 H       
  36 H36            0.5293    -0.3651     0.8851 H       
  37 H37            1.9439     1.6943     0.8826 H       
  38 H38            1.9269     1.7038    -0.8972 H       
  39 H39            0.8688     3.9463    -0.8751 H       
  40 H40            0.8858     3.9367     0.9048 H       
  41 H41           -5.0964    -1.9059     1.8058 H       
  42 H42            6.5298     5.4635     1.7344 H       
  43 H43            8.4790     7.1377     0.9216 H       
  44 H44            9.0948     5.4678     0.9077 H       
  45 H45           -7.0615    -3.5694     1.0095 H       
  46 H46           -7.6776    -1.8996     1.0312 H       
  47 H47            8.9212     7.2700    -1.5480 H       
  48 H48           -7.5536    -3.6676    -1.4522 H       
  49 H49           11.6302     8.7153     0.4151 H       
  50 H50           10.1863     4.6894    -1.1371 H       
  51 H51          -10.2223    -5.1409     0.5451 H       
  52 H52           -8.8103    -1.0934    -0.9801 H       
@<TRIPOS>BOND
   1    1    2 1
   2    1    3 1
   3    1   33 1
   4    1   34 1
   5    2    6 1
   6    2   35 1
   7    2   36 1
   8    3    4 1
   9    3   37 1
  10    3   38 1
  11    4    5 1
  12    4   39 1
  13    4   40 1
  14    5    7 1
  15    5   10 2
  16    6   11 1
  17    6   12 2
  18    7    8 1
  19    8    9 2
  20    8   18 1
  21    9   10 1
  22   11   14 1
  23   12   13 1
  24   13   14 2
  25   14   15 1
  26   15   16 am
  27   15   41 1
  28   16   17 2
  29   16   22 1
  30   18   19 am
  31   18   42 1
  32   19   20 1
  33   19   21 2
  34   20   23 1
  35   20   43 1
  36   20   44 1
  37   22   24 1
  38   22   45 1
  39   22   46 1
  40   23   26 1
  41   23   29 1
  42   23   47 1
  43   24   25 1
  44   24   32 1
  45   24   48 1
  46   25   30 2
  47   25   31 1
  48   26   27 1
  49   26   28 2
  50   27   49 1
  51   29   50 1
  52   31   51 1
  53   32   52 1

#	End of record

