#	Name: ASD03430633
#	Creating user name:	WinNT
#	Creation time:	15. 06. 2019 20:41

#	Modifying user name:	WinNT
#	Modification time:	15. 06. 2019 20:41

#	Program:	/corina/corina34_cracker 3.40 0067  02.08.2006

@<TRIPOS>MOLECULE
ASD03430633
  66   71    0    0    0
SMALL
NO_CHARGES


@<TRIPOS>ATOM
   1 N1             0.1561     1.8626     0.3529 N.am    
   2 C2             0.5566     0.8155     1.0938 C.2     
   3 C3             2.0652     0.8922     1.1945 C.3     
   4 C4             2.4239     2.1289     0.4033 C.ar    
   5 C5             3.6231     2.7404     0.1143 C.ar    
   6 C6             3.6434     3.8911    -0.6544 C.ar    
   7 C7             2.4580     4.4222    -1.1292 C.ar    
   8 C8             1.2552     3.8115    -0.8410 C.ar    
   9 C9             1.2266     2.6525    -0.0676 C.ar    
  10 O10           -0.1565    -0.0314     1.5889 O.2     
  11 O11            2.4693     1.0352     2.5577 O.3     
  12 C12           -1.2434     2.1395     0.0197 C.3     
  13 C13           -1.7642     1.0624    -0.8967 C.ar    
  14 C14           -2.8759     1.3016    -1.6826 C.ar    
  15 C15           -3.3537     0.3136    -2.5232 C.ar    
  16 C16           -2.7194    -0.9134    -2.5781 C.ar    
  17 C17           -1.6071    -1.1523    -1.7928 C.ar    
  18 C18           -1.1268    -0.1628    -0.9555 C.ar    
  19 C19           -2.0650     2.1649     1.2828 C.ar    
  20 C20           -2.3261     3.3670     1.9134 C.ar    
  21 C21           -3.0797     3.3903     3.0721 C.ar    
  22 C22           -3.5724     2.2115     3.5999 C.ar    
  23 C23           -3.3120     1.0095     2.9688 C.ar    
  24 C24           -2.5621     0.9867     1.8078 C.ar    
  25 C25            2.6982    -0.3297     0.5802 C.ar    
  26 C26            2.4576    -0.6410    -0.7500 C.ar    
  27 C27            3.0404    -1.7652    -1.3154 C.ar    
  28 C28            3.8611    -2.5748    -0.5540 C.ar    
  29 C29            4.1020    -2.2633     0.7756 C.ar    
  30 C30            3.5224    -1.1364     1.3400 C.ar    
  31 O31            1.6498     0.1558    -1.4994 O.3     
  32 O32            4.9094    -3.0604     1.5252 O.3     
  33 C33            5.4757    -4.2018     0.8783 C.3     
  34 C34            6.3347    -4.9596     1.8575 C.ar    
  35 C35            5.7806    -5.9617     2.6318 C.ar    
  36 C36            6.5686    -6.6568     3.5301 C.ar    
  37 C37            7.9107    -6.3499     3.6538 C.ar    
  38 C38            8.4651    -5.3484     2.8789 C.ar    
  39 C39            7.6781    -4.6563     1.9775 C.ar    
  40 H40            4.5467     2.3229     0.4871 H       
  41 H41            4.5825     4.3733    -0.8825 H       
  42 H42            2.4741     5.3204    -1.7287 H       
  43 H43            0.3337     4.2324    -1.2155 H       
  44 H44            2.2105     0.2956     3.1244 H       
  45 H45           -1.3138     3.1061    -0.4790 H       
  46 H46           -3.3715     2.2602    -1.6397 H       
  47 H47           -4.2227     0.5002    -3.1367 H       
  48 H48           -3.0931    -1.6856    -3.2343 H       
  49 H49           -1.1118    -2.1111    -1.8355 H       
  50 H50           -0.2556    -0.3482    -0.3447 H       
  51 H51           -1.9411     4.2879     1.5010 H       
  52 H52           -3.2831     4.3294     3.5651 H       
  53 H53           -4.1606     2.2297     4.5055 H       
  54 H54           -3.6968     0.0886     3.3814 H       
  55 H55           -2.3618     0.0480     1.3127 H       
  56 H56            2.8525    -2.0079    -2.3509 H       
  57 H57            4.3147    -3.4504    -0.9943 H       
  58 H58            3.7131    -0.8917     2.3746 H       
  59 H59            2.1155     0.8699    -1.9558 H       
  60 H60            4.6762    -4.8498     0.5191 H       
  61 H61            6.0859    -3.8765     0.0357 H       
  62 H62            4.7320    -6.2015     2.5351 H       
  63 H63            6.1355    -7.4393     4.1355 H       
  64 H64            8.5262    -6.8925     4.3561 H       
  65 H65            9.5136    -5.1084     2.9758 H       
  66 H66            8.1119    -3.8763     1.3694 H       
@<TRIPOS>BOND
   1    1    2 am
   2    1    9 1
   3    1   12 1
   4    2    3 1
   5    2   10 2
   6    3    4 1
   7    3   11 1
   8    3   25 1
   9    4    5 ar
  10    4    9 ar
  11    5    6 ar
  12    5   40 1
  13    6    7 ar
  14    6   41 1
  15    7    8 ar
  16    7   42 1
  17    8    9 ar
  18    8   43 1
  19   11   44 1
  20   12   13 1
  21   12   19 1
  22   12   45 1
  23   13   14 ar
  24   13   18 ar
  25   14   15 ar
  26   14   46 1
  27   15   16 ar
  28   15   47 1
  29   16   17 ar
  30   16   48 1
  31   17   18 ar
  32   17   49 1
  33   18   50 1
  34   19   20 ar
  35   19   24 ar
  36   20   21 ar
  37   20   51 1
  38   21   22 ar
  39   21   52 1
  40   22   23 ar
  41   22   53 1
  42   23   24 ar
  43   23   54 1
  44   24   55 1
  45   25   26 ar
  46   25   30 ar
  47   26   27 ar
  48   26   31 1
  49   27   28 ar
  50   27   56 1
  51   28   29 ar
  52   28   57 1
  53   29   30 ar
  54   29   32 1
  55   30   58 1
  56   31   59 1
  57   32   33 1
  58   33   34 1
  59   33   60 1
  60   33   61 1
  61   34   35 ar
  62   34   39 ar
  63   35   36 ar
  64   35   62 1
  65   36   37 ar
  66   36   63 1
  67   37   38 ar
  68   37   64 1
  69   38   39 ar
  70   38   65 1
  71   39   66 1

#	End of record

