#	Name: ASD08151051
#	Creating user name:	WinNT
#	Creation time:	15. 06. 2019 21:17

#	Modifying user name:	WinNT
#	Modification time:	15. 06. 2019 21:17

#	Program:	/corina/corina34_cracker 3.40 0067  02.08.2006

@<TRIPOS>MOLECULE
ASD08151051
  44   46    0    0    0
SMALL
NO_CHARGES


@<TRIPOS>ATOM
   1 C1             0.1437     2.9820     0.7987 C.3     
   2 C2            -0.7609     1.7803     0.5185 C.3     
   3 N3             4.6472     1.1252     1.1804 N.ar    
   4 C4             5.8436     0.8930     0.6975 C.ar    
   5 C5             6.2161     1.3224    -0.5745 C.ar    
   6 C6             5.3241     2.0044    -1.3519 C.ar    
   7 C7             4.0404     2.2516    -0.8294 C.ar    
   8 C8             3.0713     2.9465    -1.5723 C.ar    
   9 C9             1.8372     3.1694    -1.0383 C.ar    
  10 C10            1.5176     2.7179     0.2386 C.ar    
  11 C11            2.4413     2.0328     0.9975 C.ar    
  12 C12            3.7283     1.7865     0.4715 C.ar    
  13 N13            2.1075     1.5862     2.2765 N.3     
  14 C14            1.7516     0.1554     2.2603 C.3     
  15 C15            2.6880    -0.5599     3.2569 C.3     
  16 C16            3.1376     0.5876     4.1992 C.3     
  17 C17            3.2323     1.7809     3.2160 C.3     
  18 C18            1.9533    -0.4153     0.8552 C.3     
  19 O19            3.3512    -0.4968     0.5702 O.3     
  20 C20            3.6503    -0.9996    -0.7335 C.3     
  21 Cl21           3.4452     3.5207    -3.1673 Cl      
  22 N22           -0.4222     4.1795     0.1634 N.3     
  23 H23            0.2143     3.1405     1.8748 H       
  24 H24           -0.7412     1.5513    -0.5470 H       
  25 H25           -0.4046     0.9181     1.0822 H       
  26 H26           -1.7815     2.0155     0.8208 H       
  27 H27            6.5593     0.3551     1.3015 H       
  28 H28            7.2094     1.1165    -0.9452 H       
  29 H29            5.5960     2.3450    -2.3401 H       
  30 H30            1.0967     3.7042    -1.6146 H       
  31 H31            0.7142     0.0279     2.5694 H       
  32 H32            2.1467    -1.3253     3.8128 H       
  33 H33            3.5446    -0.9914     2.7391 H       
  34 H34            2.3903     0.7752     4.9702 H       
  35 H35            4.1088     0.3699     4.6436 H       
  36 H36            4.1818     1.7577     2.6813 H       
  37 H37            3.1204     2.7237     3.7516 H       
  38 H38            1.5128    -1.4108     0.8007 H       
  39 H39            1.4712     0.2357     0.1259 H       
  40 H40            3.3176    -2.0349    -0.8088 H       
  41 H41            3.1357    -0.3973    -1.4821 H       
  42 H42            4.7258    -0.9503    -0.9040 H       
  43 H43           -1.3441     4.3779     0.5225 H       
  44 H44            0.1895     4.9736     0.2792 H       
@<TRIPOS>BOND
   1    1    2 1
   2    1   10 1
   3    1   22 1
   4    1   23 1
   5    2   24 1
   6    2   25 1
   7    2   26 1
   8    3    4 ar
   9    3   12 ar
  10    4    5 ar
  11    4   27 1
  12    5    6 ar
  13    5   28 1
  14    6    7 ar
  15    6   29 1
  16    7    8 ar
  17    7   12 ar
  18    8    9 ar
  19    8   21 1
  20    9   10 ar
  21    9   30 1
  22   10   11 ar
  23   11   12 ar
  24   11   13 1
  25   13   14 1
  26   13   17 1
  27   14   15 1
  28   14   18 1
  29   14   31 1
  30   15   16 1
  31   15   32 1
  32   15   33 1
  33   16   17 1
  34   16   34 1
  35   16   35 1
  36   17   36 1
  37   17   37 1
  38   18   19 1
  39   18   38 1
  40   18   39 1
  41   19   20 1
  42   20   40 1
  43   20   41 1
  44   20   42 1
  45   22   43 1
  46   22   44 1

#	End of record

