#	Name: ASD01028362
#	Creating user name:	WinNT
#	Creation time:	15. 06. 2019 18:57

#	Modifying user name:	WinNT
#	Modification time:	15. 06. 2019 18:57

#	Program:	/corina/corina34_cracker 3.40 0067  02.08.2006

@<TRIPOS>MOLECULE
ASD01028362
  50   55    0    0    0
SMALL
NO_CHARGES


@<TRIPOS>ATOM
   1 C1            -0.6586     2.5887    -1.2225 C.ar    
   2 C2            -1.2951     2.3800    -2.4686 C.ar    
   3 C3             0.5852     3.2670    -1.2008 C.ar    
   4 C4             1.1150     3.6922    -2.4078 C.ar    
   5 C5             0.4257     3.4472    -3.5880 C.ar    
   6 N6            -0.7262     2.8174    -3.5968 N.ar    
   7 N7             1.2521     3.4986    -0.0066 N.pl3   
   8 C8             2.5902     4.0951    -0.0185 C.3     
   9 C9             3.6713     3.2537    -0.6463 C.2     
  10 N10            4.9520     3.6286    -0.8571 N.pl3   
  11 C11            5.5702     2.5516    -1.4470 C.2     
  12 N12            4.6568     1.6015    -1.5616 N.2     
  13 N13            3.5402     2.0251    -1.0808 N.2     
  14 N14            5.6727     4.7976    -0.6044 N.2     
  15 C15            6.9446     4.8794    -0.9268 C.2     
  16 C16            7.6071     3.7915    -1.5339 C.2     
  17 C17            6.9323     2.6402    -1.7915 C.2     
  18 C18            7.6920     6.1307    -0.6496 C.ar    
  19 C19            7.0796     7.1717     0.0456 C.ar    
  20 C20            7.7798     8.3332     0.3011 C.ar    
  21 C21            9.0870     8.4653    -0.1316 C.ar    
  22 C22            9.6998     7.4352    -0.8221 C.ar    
  23 C23            9.0108     6.2672    -1.0786 C.ar    
  24 C24           -2.5306     1.7065    -2.4932 C.ar    
  25 C25           -3.0614     1.2827    -1.3034 C.ar    
  26 C26           -2.3746     1.5248    -0.1090 C.ar    
  27 N27           -1.2219     2.1481    -0.0967 N.ar    
  28 O28           -4.2522     0.6291    -1.2835 O.3     
  29 C29           -4.7447     0.2166    -0.0070 C.3     
  30 C30            2.6857     5.6123    -0.1915 C.3     
  31 C31            2.9812     4.9767     1.1693 C.3     
  32 H32            2.0610     4.2128    -2.4310 H       
  33 H33            0.8482     3.7837    -4.5233 H       
  34 H34            0.8325     3.2656     0.8364 H       
  35 H35            8.6522     3.8737    -1.7938 H       
  36 H36            7.4343     1.8044    -2.2560 H       
  37 H37            6.0589     7.0697     0.3836 H       
  38 H38            7.3061     9.1407     0.8396 H       
  39 H39            9.6310     9.3761     0.0702 H       
  40 H40           10.7205     7.5438    -1.1580 H       
  41 H41            9.4902     5.4635    -1.6178 H       
  42 H42           -3.0466     1.5289    -3.4251 H       
  43 H43           -2.8018     1.1865     0.8234 H       
  44 H44           -4.8796     1.0906     0.6301 H       
  45 H45           -5.7004    -0.2920    -0.1334 H       
  46 H46           -4.0296    -0.4636     0.4557 H       
  47 H47            3.5308     6.0019    -0.7591 H       
  48 H48            1.7531     6.1666    -0.2965 H       
  49 H49            2.2430     5.1131     1.9595 H       
  50 H50            4.0206     4.9483     1.4965 H       
@<TRIPOS>BOND
   1    1    2 ar
   2    1    3 ar
   3    1   27 ar
   4    2   24 ar
   5    2    6 ar
   6    3    4 ar
   7    3    7 1
   8    4    5 ar
   9    4   32 1
  10    5    6 ar
  11    5   33 1
  12    7    8 1
  13    7   34 1
  14    8    9 1
  15    8   30 1
  16    8   31 1
  17    9   10 1
  18    9   13 2
  19   10   11 1
  20   10   14 1
  21   11   12 2
  22   11   17 1
  23   12   13 1
  24   14   15 2
  25   15   16 1
  26   15   18 1
  27   16   17 2
  28   16   35 1
  29   17   36 1
  30   18   19 ar
  31   18   23 ar
  32   19   20 ar
  33   19   37 1
  34   20   21 ar
  35   20   38 1
  36   21   22 ar
  37   21   39 1
  38   22   23 ar
  39   22   40 1
  40   23   41 1
  41   24   25 ar
  42   24   42 1
  43   25   26 ar
  44   25   28 1
  45   26   27 ar
  46   26   43 1
  47   28   29 1
  48   29   44 1
  49   29   45 1
  50   29   46 1
  51   30   31 1
  52   30   47 1
  53   30   48 1
  54   31   49 1
  55   31   50 1

#	End of record

