#	Name: ASD01884408
#	Creating user name:	WinNT
#	Creation time:	15. 06. 2019 19:48

#	Modifying user name:	WinNT
#	Modification time:	15. 06. 2019 19:48

#	Program:	/corina/corina34_cracker 3.40 0067  02.08.2006

@<TRIPOS>MOLECULE
ASD01884408
  35   37    0    0    0
SMALL
NO_CHARGES


@<TRIPOS>ATOM
   1 C1            -0.0164     1.3575     0.0095 C.2     
   2 C2             0.0021    -0.0041     0.0020 C.2     
   3 C3             1.2441    -0.6750    -0.0134 C.2     
   4 C4             2.4025     0.0466    -0.0206 C.2     
   5 N5             2.3701     1.4022    -0.0126 N.am    
   6 C6             1.1987     2.0651     0.0017 C.2     
   7 C7             1.2899    -2.1582    -0.0214 C.ar    
   8 C8             3.6267     2.1553    -0.0201 C.3     
   9 O9             1.1913     3.2855     0.0087 O.2     
  10 C10            4.0443     2.4216    -1.4434 C.ar    
  11 C11            3.6205     3.5706    -2.0845 C.ar    
  12 C12            4.0035     3.8149    -3.3901 C.ar    
  13 C13            4.8106     2.9104    -4.0544 C.ar    
  14 C14            5.2352     1.7618    -3.4129 C.ar    
  15 C15            4.8557     1.5196    -2.1059 C.ar    
  16 C16            0.8130    -2.8779     1.0720 C.ar    
  17 C17            1.8048    -2.8358    -1.1251 C.ar    
  18 C18            1.8452    -4.2151    -1.1285 C.ar    
  19 C19            1.3748    -4.9266    -0.0382 C.ar    
  20 C20            0.8575    -4.2584     1.0595 C.ar    
  21 Cl21           1.4278    -6.6617    -0.0490 Cl      
  22 Cl22           0.2694    -5.1571     2.4234 Cl      
  23 H23           -0.9563     1.8894     0.0169 H       
  24 H24           -0.9217    -0.5636     0.0082 H       
  25 H25            3.3529    -0.4662    -0.0325 H       
  26 H26            3.4857     3.1025     0.5005 H       
  27 H27            4.4006     1.5757     0.4832 H       
  28 H28            2.9899     4.2773    -1.5655 H       
  29 H29            3.6718     4.7122    -3.8912 H       
  30 H30            5.1093     3.1008    -5.0746 H       
  31 H31            5.8655     1.0550    -3.9320 H       
  32 H32            5.1874     0.6223    -1.6047 H       
  33 H33            0.4096    -2.3573     1.9280 H       
  34 H34            2.1715    -2.2820    -1.9767 H       
  35 H35            2.2441    -4.7405    -1.9836 H       
@<TRIPOS>BOND
   1    1    2 2
   2    1    6 1
   3    1   23 1
   4    2    3 1
   5    2   24 1
   6    3    4 2
   7    3    7 1
   8    4    5 1
   9    4   25 1
  10    5    6 am
  11    5    8 1
  12    6    9 2
  13    7   16 ar
  14    7   17 ar
  15    8   10 1
  16    8   26 1
  17    8   27 1
  18   10   11 ar
  19   10   15 ar
  20   11   12 ar
  21   11   28 1
  22   12   13 ar
  23   12   29 1
  24   13   14 ar
  25   13   30 1
  26   14   15 ar
  27   14   31 1
  28   15   32 1
  29   16   20 ar
  30   16   33 1
  31   17   18 ar
  32   17   34 1
  33   18   19 ar
  34   18   35 1
  35   19   20 ar
  36   19   21 1
  37   20   22 1

#	End of record

