#	Name: ASD03240527
#	Creating user name:	WinNT
#	Creation time:	15. 06. 2019 20:35

#	Modifying user name:	WinNT
#	Modification time:	15. 06. 2019 20:35

#	Program:	/corina/corina34_cracker 3.40 0067  02.08.2006

@<TRIPOS>MOLECULE
ASD03240527
  58   64    0    0    0
SMALL
NO_CHARGES


@<TRIPOS>ATOM
   1 C1            -0.0166     1.3755     0.0096 C.ar    
   2 C2             0.0021    -0.0041     0.0020 C.ar    
   3 N3             1.1422    -0.6683    -0.0058 N.ar    
   4 C4             2.3145    -0.0481    -0.0058 C.ar    
   5 C5             2.3702     1.3442    -0.0124 C.ar    
   6 C6             1.1860     2.0698     0.0018 C.ar    
   7 N7             3.4820    -0.8058     0.0220 N.pl3   
   8 C8             4.3589    -0.7197     1.0999 C.ar    
   9 C9             4.9953     0.4885     1.4041 C.ar    
  10 C10            4.7642     1.6831     0.5625 C.2     
  11 N11            3.5939     2.0276    -0.0512 N.pl3   
  12 C12            4.6044    -1.8395     1.8832 C.ar    
  13 C13            5.4636    -1.7544     2.9621 C.ar    
  14 C14            6.0849    -0.5566     3.2710 C.ar    
  15 C15            5.8560     0.5644     2.4988 C.ar    
  16 N16            5.6760     2.5935     0.2857 N.2     
  17 C17            5.1460     3.5396    -0.5047 C.2     
  18 C18            3.8226     3.2040    -0.7364 C.2     
  19 C19            2.8503     3.9548    -1.5540 C.ar    
  20 C20            2.7518     5.3428    -1.4290 C.ar    
  21 C21            2.0278     3.2817    -2.4608 C.ar    
  22 C22            1.1213     3.9900    -3.2216 C.ar    
  23 C23            1.0256     5.3641    -3.0887 C.ar    
  24 C24            1.8407     6.0381    -2.1963 C.ar    
  25 C25            5.8506     4.7299    -1.0351 C.ar    
  26 C26            0.0330     6.1309    -3.9240 C.3     
  27 N27           -1.0462     5.2835    -4.4487 N.3     
  28 C28           -0.4676     7.4221    -3.2552 C.3     
  29 C29           -0.3802     8.0810    -4.6419 C.3     
  30 C30            0.6864     7.0266    -4.9897 C.3     
  31 C31            6.8262     5.3848    -0.2769 C.ar    
  32 C32            5.5628     5.2266    -2.3102 C.ar    
  33 N33            6.2151     6.2911    -2.7441 N.ar    
  34 C34            7.1243     6.8818    -1.9939 C.ar    
  35 N35            7.4301     6.4432    -0.7888 N.ar    
  36 H36           -0.9556     1.9091     0.0170 H       
  37 H37           -0.9306    -0.5486     0.0028 H       
  38 H38            1.2002     3.1497     0.0064 H       
  39 H39            3.6864    -1.4000    -0.7170 H       
  40 H40            4.1232    -2.7777     1.6493 H       
  41 H41            5.6515    -2.6281     3.5685 H       
  42 H42            6.7510    -0.4990     4.1191 H       
  43 H43            6.3417     1.4979     2.7420 H       
  44 H44            3.3873     5.8701    -0.7329 H       
  45 H45            2.1020     2.2094    -2.5661 H       
  46 H46            0.4849     3.4710    -3.9231 H       
  47 H47            1.7603     7.1105    -2.0975 H       
  48 H48           -0.6735     4.4615    -4.8998 H       
  49 H49           -1.6960     5.0322    -3.7188 H       
  50 H50           -1.4846     7.3484    -2.8701 H       
  51 H51            0.2318     7.8374    -2.5296 H       
  52 H52           -1.2938     7.9860    -5.2288 H       
  53 H53            0.0043     9.1007    -4.6174 H       
  54 H54            1.7017     7.3333    -4.7385 H       
  55 H55            0.5997     6.6358    -6.0035 H       
  56 H56            7.0819     5.0316     0.7111 H       
  57 H57            4.8196     4.7479    -2.9307 H       
  58 H58            7.6379     7.7496    -2.3806 H       
@<TRIPOS>BOND
   1    1    2 ar
   2    1    6 ar
   3    1   36 1
   4    2    3 ar
   5    2   37 1
   6    3    4 ar
   7    4    5 ar
   8    4    7 1
   9    5    6 ar
  10    5   11 1
  11    6   38 1
  12    7    8 1
  13    7   39 1
  14    8    9 ar
  15    8   12 ar
  16    9   10 1
  17    9   15 ar
  18   10   11 1
  19   10   16 2
  20   11   18 1
  21   12   13 ar
  22   12   40 1
  23   13   14 ar
  24   13   41 1
  25   14   15 ar
  26   14   42 1
  27   15   43 1
  28   16   17 1
  29   17   18 2
  30   17   25 1
  31   18   19 1
  32   19   20 ar
  33   19   21 ar
  34   20   24 ar
  35   20   44 1
  36   21   22 ar
  37   21   45 1
  38   22   23 ar
  39   22   46 1
  40   23   24 ar
  41   23   26 1
  42   24   47 1
  43   25   31 ar
  44   25   32 ar
  45   26   27 1
  46   26   28 1
  47   26   30 1
  48   27   48 1
  49   27   49 1
  50   28   29 1
  51   28   50 1
  52   28   51 1
  53   29   30 1
  54   29   52 1
  55   29   53 1
  56   30   54 1
  57   30   55 1
  58   31   35 ar
  59   31   56 1
  60   32   33 ar
  61   32   57 1
  62   33   34 ar
  63   34   35 ar
  64   34   58 1

#	End of record

