#	Name: ASD03730472
#	Creating user name:	WinNT
#	Creation time:	15. 06. 2019 20:44

#	Modifying user name:	WinNT
#	Modification time:	15. 06. 2019 20:44

#	Program:	/corina/corina34_cracker 3.40 0067  02.08.2006

@<TRIPOS>MOLECULE
ASD03730472
  48   52    0    0    0
SMALL
NO_CHARGES


@<TRIPOS>ATOM
   1 C1            -0.0184     1.5028     0.0103 C.2     
   2 C2             0.0021    -0.0041     0.0020 C.3     
   3 O3             1.0236     2.1234     0.0037 O.2     
   4 N4            -1.1946     2.1607     0.0195 N.am    
   5 C5            -1.2145     3.6256     0.0275 C.3     
   6 C6            -2.6637     4.1159     0.0371 C.3     
   7 C7            -2.6845     5.6457     0.0455 C.3     
   8 O8             6.2459     2.8794     2.0976 O.3     
   9 C9             7.6663     2.8233     2.3260 C.3     
  10 O10            7.8789     1.4934     2.8350 O.3     
  11 C11            6.8679     0.7368     2.3152 C.ar    
  12 C12            5.8636     1.5896     1.8629 C.ar    
  13 C13            6.7212    -0.6329     2.1884 C.ar    
  14 C14            5.5735    -1.1688     1.6121 C.ar    
  15 C15            4.5736    -0.3071     1.1716 C.ar    
  16 C16            4.7194     1.0592     1.2910 C.ar    
  17 O17            5.2412    -2.4710     1.3795 O.3     
  18 C18            3.4673    -1.1739     0.6323 C.3     
  19 C19            3.8195    -2.5682     1.1684 C.3     
  20 N20            1.3897    -0.4735    -0.0138 N.am    
  21 C21            2.1130    -0.7212     1.0965 C.2     
  22 C22            3.4026    -1.1504    -0.8661 C.ar    
  23 C23            4.3041    -1.4527    -1.8622 C.ar    
  24 C24            3.9367    -1.3289    -3.1903 C.ar    
  25 C25            2.6624    -0.9003    -3.5148 C.ar    
  26 C26            1.7562    -0.5954    -2.5207 C.ar    
  27 C27            2.1172    -0.7175    -1.1811 C.ar    
  28 O28            1.7424    -0.6020     2.2452 O.2     
  29 H29           -0.4983    -0.3791     0.8948 H       
  30 H30           -0.5153    -0.3696    -0.8850 H       
  31 H31           -2.0280     1.6644     0.0207 H       
  32 H32           -0.7014     3.9910     0.9171 H       
  33 H33           -0.7098     4.0007    -0.8628 H       
  34 H34           -3.1768     3.7505    -0.8525 H       
  35 H35           -3.1683     3.7408     0.9274 H       
  36 H36           -2.1714     6.0112     0.9350 H       
  37 H37           -2.1798     6.0209    -0.8449 H       
  38 H38           -3.7170     5.9951     0.0523 H       
  39 H39            8.2103     2.9676     1.3925 H       
  40 H40            7.9653     3.5680     3.0637 H       
  41 H41            7.5027    -1.2907     2.5390 H       
  42 H42            3.9391     1.7171     0.9379 H       
  43 H43            3.5894    -3.3363     0.4301 H       
  44 H44            3.3012    -2.7643     2.1070 H       
  45 H45            5.2987    -1.7870    -1.6065 H       
  46 H46            4.6432    -1.5667    -3.9717 H       
  47 H47            2.3756    -0.8035    -4.5515 H       
  48 H48            0.7631    -0.2608    -2.7820 H       
@<TRIPOS>BOND
   1    1    2 1
   2    1    3 2
   3    1    4 am
   4    2   20 1
   5    2   29 1
   6    2   30 1
   7    4    5 1
   8    4   31 1
   9    5    6 1
  10    5   32 1
  11    5   33 1
  12    6    7 1
  13    6   34 1
  14    6   35 1
  15    7   36 1
  16    7   37 1
  17    7   38 1
  18    8    9 1
  19    8   12 1
  20    9   10 1
  21    9   39 1
  22    9   40 1
  23   10   11 1
  24   11   12 ar
  25   11   13 ar
  26   12   16 ar
  27   13   14 ar
  28   13   41 1
  29   14   15 ar
  30   14   17 1
  31   15   16 ar
  32   15   18 1
  33   16   42 1
  34   17   19 1
  35   18   19 1
  36   18   21 1
  37   18   22 1
  38   19   43 1
  39   19   44 1
  40   20   21 am
  41   20   27 1
  42   21   28 2
  43   22   23 ar
  44   22   27 ar
  45   23   24 ar
  46   23   45 1
  47   24   25 ar
  48   24   46 1
  49   25   26 ar
  50   25   47 1
  51   26   27 ar
  52   26   48 1

#	End of record

