#	Name: ASD01910305
#	Creating user name:	WinNT
#	Creation time:	15. 06. 2019 19:55

#	Modifying user name:	WinNT
#	Modification time:	15. 06. 2019 19:55

#	Program:	/corina/corina34_cracker 3.40 0067  02.08.2006

@<TRIPOS>MOLECULE
ASD01910305
  44   47    0    0    0
SMALL
NO_CHARGES


@<TRIPOS>ATOM
   1 C1            -0.6702     1.7919    -2.0512 C.ar    
   2 C2             1.4653     0.4745    -0.8686 C.ar    
   3 C3             1.5353     1.8456    -1.1052 C.ar    
   4 C4             0.4595     2.5018    -1.6992 C.ar    
   5 C5             2.7524     2.6054    -0.7244 C.2     
   6 N6             2.9570     3.8974    -0.8871 N.2     
   7 N7             4.1304     4.1715    -0.4302 N.pl3   
   8 N8             4.6757     3.0944     0.0166 N.2     
   9 N9             3.8549     2.1122    -0.1429 N.2     
  10 C10            4.7474     5.5002    -0.4216 C.3     
  11 C11            5.0617     5.9080     1.0196 C.3     
  12 C12            5.6762     7.3096     1.0325 C.3     
  13 C13            6.9855     7.2961     0.2373 C.3     
  14 N14            6.7169     6.7672    -1.1069 N.am    
  15 C15            6.0461     5.4662    -1.2332 C.3     
  16 C16            7.0790     7.4624    -2.2033 C.2     
  17 C17            7.6766     8.8060    -2.0620 C.ar    
  18 O18            6.9139     6.9838    -3.3086 O.2     
  19 C19            8.7497     9.0073    -1.1919 C.ar    
  20 C20            9.3046    10.2630    -1.0629 C.ar    
  21 C21            8.7992    11.3257    -1.7946 C.ar    
  22 C22            7.7316    11.1324    -2.6616 C.ar    
  23 C23            7.1736     9.8780    -2.8028 C.ar    
  24 F24            9.3465    12.5539    -1.6639 F       
  25 C25           -0.7355     0.4284    -1.8146 C.ar    
  26 C26            0.3320    -0.2280    -1.2236 C.ar    
  27 F27           -1.8433    -0.2630    -2.1607 F       
  28 F28            7.2427    12.1722    -3.3722 F       
  29 H29           -1.5063     2.3007    -2.5077 H       
  30 H30            2.2972    -0.0381    -0.4086 H       
  31 H31            0.5097     3.5647    -1.8843 H       
  32 H32            4.0609     6.2229    -0.8627 H       
  33 H33            4.1425     5.9091     1.6054 H       
  34 H34            5.7669     5.1984     1.4522 H       
  35 H35            4.9815     8.0156     0.5774 H       
  36 H36            5.8782     7.6088     2.0609 H       
  37 H37            7.3762     8.3106     0.1595 H       
  38 H38            7.7128     6.6599     0.7417 H       
  39 H39            6.6968     4.6807    -0.8488 H       
  40 H40            5.8171     5.2733    -2.2813 H       
  41 H41            9.1446     8.1805    -0.6202 H       
  42 H42           10.1347    10.4187    -0.3898 H       
  43 H43            6.3436     9.7276    -3.4772 H       
  44 H44            0.2770    -1.2910    -1.0409 H       
@<TRIPOS>BOND
   1    1   25 ar
   2    1    4 ar
   3    1   29 1
   4    2    3 ar
   5    2   26 ar
   6    2   30 1
   7    3    4 ar
   8    3    5 1
   9    4   31 1
  10    5    6 2
  11    5    9 1
  12    6    7 1
  13    7    8 1
  14    7   10 1
  15    8    9 2
  16   10   11 1
  17   10   15 1
  18   10   32 1
  19   11   12 1
  20   11   33 1
  21   11   34 1
  22   12   13 1
  23   12   35 1
  24   12   36 1
  25   13   14 1
  26   13   37 1
  27   13   38 1
  28   14   15 1
  29   14   16 am
  30   15   39 1
  31   15   40 1
  32   16   17 1
  33   16   18 2
  34   17   19 ar
  35   17   23 ar
  36   19   20 ar
  37   19   41 1
  38   20   21 ar
  39   20   42 1
  40   21   22 ar
  41   21   24 1
  42   22   23 ar
  43   22   28 1
  44   23   43 1
  45   25   26 ar
  46   25   27 1
  47   26   44 1

#	End of record

