#	Name: ASD01880730
#	Creating user name:	WinNT
#	Creation time:	15. 06. 2019 19:41

#	Modifying user name:	WinNT
#	Modification time:	15. 06. 2019 19:41

#	Program:	/corina/corina34_cracker 3.40 0067  02.08.2006

@<TRIPOS>MOLECULE
ASD01880730
  49   52    0    0    0
SMALL
NO_CHARGES


@<TRIPOS>ATOM
   1 N1            -0.0330     1.2619    -0.1613 N.ar    
   2 C2             0.0477    -0.0514    -0.2010 C.ar    
   3 N3             1.1946    -0.6839    -0.0495 N.ar    
   4 C4             2.3215    -0.0167     0.1499 C.ar    
   5 C5             2.2870     1.3676     0.1990 C.ar    
   6 C6             1.0552     2.0049     0.0351 C.ar    
   7 C7             3.5459     2.1648     0.4243 C.3     
   8 O8             4.2286     2.3386    -0.8190 O.3     
   9 C9             5.3900     3.0400    -0.7913 C.ar    
  10 C10            6.1056     3.2463    -1.9667 C.ar    
  11 C11            7.2801     3.9564    -1.9374 C.ar    
  12 C12            7.7637     4.4751    -0.7317 C.ar    
  13 C13            7.0409     4.2653     0.4459 C.ar    
  14 C14            5.8607     3.5565     0.4100 C.ar    
  15 C15            8.2749     4.3515    -3.0003 C.3     
  16 N16            9.3261     5.1120    -2.3151 N.am    
  17 C17            9.0273     5.1809    -1.0065 C.2     
  18 O18            9.7034     5.7458    -0.1687 O.2     
  19 Br19           3.9566    -0.9418     0.3655 Br      
  20 C20            7.5499     4.8178     1.7523 C.3     
  21 C21            0.9601     3.4839     0.0782 C.ar    
  22 C22            1.8914     4.2624    -0.6094 C.ar    
  23 C23            1.8039     5.6360    -0.5706 C.ar    
  24 C24            0.7819     6.2500     0.1579 C.ar    
  25 C25           -0.1502     5.4692     0.8461 C.ar    
  26 C26           -0.0638     4.0957     0.8015 C.ar    
  27 C27            0.6901     7.6785     0.1994 C.1     
  28 N28            0.6173     8.8117     0.2324 N.1     
  29 C29           10.1865     7.1246    -3.4063 C.3     
  30 C30           10.5074     5.6992    -2.9524 C.3     
  31 H31           -0.8516    -0.6274    -0.3618 H       
  32 H32            3.2891     3.1403     0.8373 H       
  33 H33            4.1924     1.6334     1.1227 H       
  34 H34            5.7377     2.8480    -2.9008 H       
  35 H35            5.3024     3.3950     1.3203 H       
  36 H36            8.6990     3.4618    -3.4659 H       
  37 H37            7.7915     4.9746    -3.7528 H       
  38 H38            7.1515     5.8212     1.9024 H       
  39 H39            7.2276     4.1728     2.5698 H       
  40 H40            8.6389     4.8589     1.7297 H       
  41 H41            2.6815     3.7875    -1.1722 H       
  42 H42            2.5252     6.2385    -1.1027 H       
  43 H43           -0.9404     5.9428     1.4098 H       
  44 H44           -0.7842     3.4920     1.3334 H       
  45 H45            9.3624     7.1020    -4.1193 H       
  46 H46            9.9030     7.7259    -2.5424 H       
  47 H47           11.0653     7.5615    -3.8804 H       
  48 H48           11.3315     5.7218    -2.2393 H       
  49 H49           10.7908     5.0979    -3.8163 H       
@<TRIPOS>BOND
   1    1    2 ar
   2    1    6 ar
   3    2    3 ar
   4    2   31 1
   5    3    4 ar
   6    4    5 ar
   7    4   19 1
   8    5    6 ar
   9    5    7 1
  10    6   21 1
  11    7    8 1
  12    7   32 1
  13    7   33 1
  14    8    9 1
  15    9   10 ar
  16    9   14 ar
  17   10   11 ar
  18   10   34 1
  19   11   12 ar
  20   11   15 1
  21   12   13 ar
  22   12   17 1
  23   13   14 ar
  24   13   20 1
  25   14   35 1
  26   15   16 1
  27   15   36 1
  28   15   37 1
  29   16   17 am
  30   16   30 1
  31   17   18 2
  32   20   38 1
  33   20   39 1
  34   20   40 1
  35   21   22 ar
  36   21   26 ar
  37   22   23 ar
  38   22   41 1
  39   23   24 ar
  40   23   42 1
  41   24   25 ar
  42   24   27 1
  43   25   26 ar
  44   25   43 1
  45   26   44 1
  46   27   28 3
  47   29   30 1
  48   29   45 1
  49   29   46 1
  50   29   47 1
  51   30   48 1
  52   30   49 1

#	End of record

