#	Name: ASD01912726
#	Creating user name:	WinNT
#	Creation time:	15. 06. 2019 20:00

#	Modifying user name:	WinNT
#	Modification time:	15. 06. 2019 20:00

#	Program:	/corina/corina34_cracker 3.40 0067  02.08.2006

@<TRIPOS>MOLECULE
ASD01912726
  41   44    0    0    0
SMALL
NO_CHARGES


@<TRIPOS>ATOM
   1 C1            -0.0190     1.3588     0.1465 C.2     
   2 N2             0.0023    -0.0034    -0.0080 N.pl3   
   3 C3            -1.1995    -0.6830    -0.1407 C.2     
   4 C4            -2.3603    -0.0411    -0.1206 C.2     
   5 N5            -2.4358     1.3308     0.0320 N.am    
   6 C6            -1.3048     2.0578     0.1726 C.2     
   7 C7             1.2969     1.7686     0.2535 C.2     
   8 C8             2.0520     0.6011     0.1549 C.2     
   9 N9             1.2241    -0.4053     0.0021 N.2     
  10 O10           -1.3541     3.2670     0.3085 O.2     
  11 C11           -3.6793     1.9642     0.0469 C.ar    
  12 C12            3.5551     0.5106     0.2135 C.3     
  13 O13            4.1045     1.8182     0.3879 O.3     
  14 C14            5.4582     1.9139     0.4609 C.ar    
  15 C15            6.0591     3.1529     0.6298 C.ar    
  16 C16            7.4353     3.2476     0.7036 C.ar    
  17 C17            8.2138     2.1088     0.6094 C.ar    
  18 C18            7.6174     0.8728     0.4405 C.ar    
  19 C19            6.2413     0.7722     0.3723 C.ar    
  20 C20           -4.2680     2.3827    -1.1508 C.ar    
  21 N21           -5.4473     2.9827    -1.1288 N.ar    
  22 C22           -5.4873     2.7669     1.2060 C.ar    
  23 N23           -4.3086     2.1662     1.1948 N.ar    
  24 C24           -6.0657     3.1849     0.0239 C.ar    
  25 O25           -3.6319     2.1747    -2.3313 O.3     
  26 C26           -4.2935     2.6290    -3.5137 C.3     
  27 H27           -1.1901    -1.7560    -0.2631 H       
  28 H28           -3.2738    -0.6073    -0.2271 H       
  29 H29            1.6615     2.7767     0.3850 H       
  30 H30            3.8487    -0.1216     1.0515 H       
  31 H31            3.9297     0.0800    -0.7151 H       
  32 H32            5.4514     4.0427     0.7032 H       
  33 H33            7.9035     4.2119     0.8348 H       
  34 H34            9.2895     2.1849     0.6673 H       
  35 H35            8.2277    -0.0151     0.3664 H       
  36 H36            5.7759    -0.1935     0.2404 H       
  37 H37           -5.9989     2.9308     2.1429 H       
  38 H38           -7.0279     3.6751     0.0395 H       
  39 H39           -3.6786     2.4012    -4.3844 H       
  40 H40           -5.2562     2.1264    -3.6072 H       
  41 H41           -4.4504     3.7058    -3.4513 H       
@<TRIPOS>BOND
   1    1    2 1
   2    1    7 2
   3    1    6 1
   4    2    3 1
   5    2    9 1
   6    3    4 2
   7    3   27 1
   8    4    5 1
   9    4   28 1
  10    5    6 am
  11    5   11 1
  12    6   10 2
  13    7    8 1
  14    7   29 1
  15    8    9 2
  16    8   12 1
  17   11   20 ar
  18   11   23 ar
  19   12   13 1
  20   12   30 1
  21   12   31 1
  22   13   14 1
  23   14   15 ar
  24   14   19 ar
  25   15   16 ar
  26   15   32 1
  27   16   17 ar
  28   16   33 1
  29   17   18 ar
  30   17   34 1
  31   18   19 ar
  32   18   35 1
  33   19   36 1
  34   20   21 ar
  35   20   25 1
  36   21   24 ar
  37   22   23 ar
  38   22   24 ar
  39   22   37 1
  40   24   38 1
  41   25   26 1
  42   26   39 1
  43   26   40 1
  44   26   41 1

#	End of record

