#	Name: ASD03080073
#	Creating user name:	WinNT
#	Creation time:	15. 06. 2019 20:26

#	Modifying user name:	WinNT
#	Modification time:	15. 06. 2019 20:26

#	Program:	/corina/corina34_cracker 3.40 0067  02.08.2006

@<TRIPOS>MOLECULE
ASD03080073
  33   36    0    0    0
SMALL
NO_CHARGES


@<TRIPOS>ATOM
   1 O1            -0.0144     1.2085     0.0087 O.3     
   2 N2             0.0021    -0.0041     0.0020 N.2     
   3 C3             1.2349    -0.4419    -0.0121 C.2     
   4 N4             2.0455     0.6369    -0.0141 N.2     
   5 C5             1.2410     1.6828    -0.0008 C.2     
   6 C6             3.0160    -2.1949    -0.0374 C.ar    
   7 C7             1.6630    -1.8633    -0.0231 C.ar    
   8 C8             0.7156    -2.8900    -0.0188 C.ar    
   9 C9             1.1659    -4.1993    -0.0290 C.ar    
  10 C10            2.5263    -4.4464    -0.0430 C.ar    
  11 N11            3.3973    -3.4556    -0.0467 N.ar    
  12 C12            1.6452     3.1050     0.0021 C.ar    
  13 C13            0.6761     4.1069     0.0162 C.ar    
  14 C14            1.0646     5.4421     0.0193 C.ar    
  15 C15            2.4194     5.7719     0.0082 C.ar    
  16 C16            3.3762     4.7759    -0.0058 C.ar    
  17 C17            2.9985     3.4479    -0.0036 C.ar    
  18 N18           -1.8753     7.5995     0.0572 N.pl3   
  19 N19           -1.2657     6.3385     0.0452 N.2     
  20 C20            0.0386     6.5147     0.0338 C.2     
  21 C21            0.2889     7.9007     0.0384 C.2     
  22 C22           -0.9029     8.5366     0.0527 C.2     
  23 H23            3.7590    -1.4111    -0.0453 H       
  24 H24           -0.3413    -2.6681    -0.0075 H       
  25 H25            0.4623    -5.0186    -0.0257 H       
  26 H26            2.8813    -5.4663    -0.0506 H       
  27 H27           -0.3722     3.8473     0.0244 H       
  28 H28            2.7213     6.8088     0.0102 H       
  29 H29            4.4241     5.0370    -0.0143 H       
  30 H30            3.7510     2.6733    -0.0104 H       
  31 H31           -2.8301     7.7701     0.0634 H       
  32 H32            1.2608     8.3715     0.0316 H       
  33 H33           -1.0518     9.6062     0.0594 H       
@<TRIPOS>BOND
   1    1    2 1
   2    1    5 1
   3    2    3 2
   4    3    4 1
   5    3    7 1
   6    4    5 2
   7    5   12 1
   8    6    7 ar
   9    6   11 ar
  10    6   23 1
  11    7    8 ar
  12    8    9 ar
  13    8   24 1
  14    9   10 ar
  15    9   25 1
  16   10   11 ar
  17   10   26 1
  18   12   13 ar
  19   12   17 ar
  20   13   14 ar
  21   13   27 1
  22   14   15 ar
  23   14   20 1
  24   15   16 ar
  25   15   28 1
  26   16   17 ar
  27   16   29 1
  28   17   30 1
  29   18   19 1
  30   18   22 1
  31   18   31 1
  32   19   20 2
  33   20   21 1
  34   21   22 2
  35   21   32 1
  36   22   33 1

#	End of record

