#	Name: ASD01230800
#	Creating user name:	WinNT
#	Creation time:	15. 06. 2019 19:15

#	Modifying user name:	WinNT
#	Modification time:	15. 06. 2019 19:15

#	Program:	/corina/corina34_cracker 3.40 0067  02.08.2006

@<TRIPOS>MOLECULE
ASD01230800
  34   36    0    0    0
SMALL
NO_CHARGES


@<TRIPOS>ATOM
   1 C1            -0.0166     1.3738     0.0096 C.2     
   2 C2             0.0021    -0.0041     0.0020 C.2     
   3 C3            -1.2147    -0.7002     0.0078 C.2     
   4 C4            -2.3849    -0.0394     0.0095 C.2     
   5 N5            -2.4623     1.3314     0.0002 N.pl3   
   6 C6            -1.3176     2.0760     0.0320 C.2     
   7 C7            -3.8098     1.9046    -0.0505 C.3     
   8 C8            -3.8786     3.1901     0.7790 C.3     
   9 S9            -2.6221     4.3264     0.1118 S.o2    
  10 N10           -1.2620     3.3848     0.0823 N.am    
  11 C11            1.2495     2.1409     0.0016 C.ar    
  12 O12           -2.8864     4.6259    -1.2518 O.2     
  13 O13           -2.3217     5.3521     1.0482 O.2     
  14 C14            2.1015     2.0724    -1.1018 C.ar    
  15 C15            3.2795     2.7875    -1.1067 C.ar    
  16 C16            3.6200     3.5766    -0.0131 C.ar    
  17 C17            2.7727     3.6466     1.0878 C.ar    
  18 C18            1.5906     2.9384     1.0951 C.ar    
  19 S19            5.1275     4.4887    -0.0220 S.3     
  20 C20            5.1049     5.3301     1.5848 C.3     
  21 H21            0.9399    -0.5395    -0.0085 H       
  22 H22           -1.2116    -1.7802     0.0105 H       
  23 H23           -3.3019    -0.6099     0.0181 H       
  24 H24           -4.0658     2.1306    -1.0857 H       
  25 H25           -4.5231     1.1822     0.3462 H       
  26 H26           -4.8686     3.6373     0.6898 H       
  27 H27           -3.6624     2.9697     1.8244 H       
  28 H28            1.8379     1.4593    -1.9509 H       
  29 H29            3.9391     2.7348    -1.9602 H       
  30 H30            3.0394     4.2601     1.9357 H       
  31 H31            0.9331     2.9931     1.9501 H       
  32 H32            6.0057     5.9346     1.6911 H       
  33 H33            4.2267     5.9729     1.6461 H       
  34 H34            5.0687     4.5885     2.3828 H       
@<TRIPOS>BOND
   1    1    2 2
   2    1   11 1
   3    1    6 1
   4    2    3 1
   5    2   21 1
   6    3    4 2
   7    3   22 1
   8    4    5 1
   9    4   23 1
  10    5    6 1
  11    5    7 1
  12    6   10 2
  13    7    8 1
  14    7   24 1
  15    7   25 1
  16    8    9 1
  17    8   26 1
  18    8   27 1
  19    9   10 am
  20    9   12 2
  21    9   13 2
  22   11   14 ar
  23   11   18 ar
  24   14   15 ar
  25   14   28 1
  26   15   16 ar
  27   15   29 1
  28   16   17 ar
  29   16   19 1
  30   17   18 ar
  31   17   30 1
  32   18   31 1
  33   19   20 1
  34   20   32 1
  35   20   33 1
  36   20   34 1

#	End of record

