#	Name: ASD03091064
#	Creating user name:	WinNT
#	Creation time:	15. 06. 2019 20:30

#	Modifying user name:	WinNT
#	Modification time:	15. 06. 2019 20:30

#	Program:	/corina/corina34_cracker 3.40 0067  02.08.2006

@<TRIPOS>MOLECULE
ASD03091064
  54   58    0    0    0
SMALL
NO_CHARGES


@<TRIPOS>ATOM
   1 C1            -0.4024     1.5428    -0.2050 C.3     
   2 N2            -0.2842     0.0829    -0.1791 N.am    
   3 C3            -0.6578    -0.6038     0.9332 C.2     
   4 N4            -0.5832    -1.8957     1.0335 N.2     
   5 C5            -0.1184    -2.6630     0.0151 C.ar    
   6 C6             0.2933    -2.0356    -1.1817 C.ar    
   7 C7             0.1909    -0.5710    -1.2647 C.2     
   8 C8            -1.1851     0.1752     2.1106 C.3     
   9 O9             0.5290     0.0307    -2.2675 O.2     
  10 C10           -0.0382    -4.0531     0.1242 C.ar    
  11 C11            0.4355    -4.7921    -0.9220 C.ar    
  12 C12            0.8434    -4.1778    -2.1060 C.ar    
  13 C13            0.7744    -2.8016    -2.2410 C.ar    
  14 N14            1.3250    -4.9562    -3.1623 N.3     
  15 C15            2.4157    -4.2692    -3.8681 C.3     
  16 C16            3.4870    -5.2649    -4.2869 C.3     
  17 C17            3.0721    -6.1406    -5.4520 C.3     
  18 N18            1.7586    -5.7483    -5.9827 N.3     
  19 C19            0.6891    -6.3109    -5.1443 C.3     
  20 C20            0.2453    -5.3053    -4.0933 C.3     
  21 C21            1.6678    -4.3334    -6.2726 C.3     
  22 C22            1.8379    -3.4784    -5.0276 C.3     
  23 C23            0.9530     2.1581    -0.5588 C.3     
  24 C24           -2.0944    -0.5623     3.0955 C.3     
  25 C25           -0.6630    -0.2021     3.4983 C.3     
  26 C26           -1.4378     1.9521    -1.2544 C.3     
  27 H27           -0.7184     1.8992     0.7755 H       
  28 H28           -1.3970     1.2275     1.9211 H       
  29 H29           -0.3499    -4.5430     1.0348 H       
  30 H30            0.4954    -5.8666    -0.8313 H       
  31 H31            1.0905    -2.3268    -3.1581 H       
  32 H32            2.8673    -3.5563    -3.1783 H       
  33 H33            4.3856    -4.7147    -4.5660 H       
  34 H34            3.7220    -5.9040    -3.4357 H       
  35 H35            3.8159    -6.0550    -6.2441 H       
  36 H36            3.0262    -7.1775    -5.1191 H       
  37 H37           -0.1616    -6.5711    -5.7741 H       
  38 H38            1.0564    -7.2096    -4.6488 H       
  39 H39           -0.5851    -5.7285    -3.5281 H       
  40 H40           -0.0962    -4.3991    -4.5937 H       
  41 H41            2.4435    -4.0694    -6.9914 H       
  42 H42            0.6933    -4.1248    -6.7142 H       
  43 H43            0.8661    -3.0804    -4.7357 H       
  44 H44            2.5049    -2.6474    -5.2569 H       
  45 H45            1.2690     1.8018    -1.5392 H       
  46 H46            0.8650     3.2444    -0.5780 H       
  47 H47            1.6906     1.8666     0.1889 H       
  48 H48           -2.9043     0.0049     3.5544 H       
  49 H49           -2.3112    -1.6109     2.8920 H       
  50 H50            0.0619    -1.0138     3.5598 H       
  51 H51           -0.5312     0.6021     4.2222 H       
  52 H52           -2.4035     1.5138    -1.0024 H       
  53 H53           -1.5259     3.0384    -1.2737 H       
  54 H54           -1.1219     1.5957    -2.2348 H       
@<TRIPOS>BOND
   1    1    2 1
   2    1   23 1
   3    1   26 1
   4    1   27 1
   5    2    3 1
   6    2    7 am
   7    3    4 2
   8    3    8 1
   9    4    5 1
  10    5    6 ar
  11    5   10 ar
  12    6    7 1
  13    6   13 ar
  14    7    9 2
  15    8   24 1
  16    8   25 1
  17    8   28 1
  18   10   11 ar
  19   10   29 1
  20   11   12 ar
  21   11   30 1
  22   12   13 ar
  23   12   14 1
  24   13   31 1
  25   14   15 1
  26   14   20 1
  27   15   16 1
  28   15   22 1
  29   15   32 1
  30   16   17 1
  31   16   33 1
  32   16   34 1
  33   17   18 1
  34   17   35 1
  35   17   36 1
  36   18   19 1
  37   18   21 1
  38   19   20 1
  39   19   37 1
  40   19   38 1
  41   20   39 1
  42   20   40 1
  43   21   22 1
  44   21   41 1
  45   21   42 1
  46   22   43 1
  47   22   44 1
  48   23   45 1
  49   23   46 1
  50   23   47 1
  51   24   25 1
  52   24   48 1
  53   24   49 1
  54   25   50 1
  55   25   51 1
  56   26   52 1
  57   26   53 1
  58   26   54 1

#	End of record

