#	Name: ASD01180031
#	Creating user name:	WinNT
#	Creation time:	15. 06. 2019 19:06

#	Modifying user name:	WinNT
#	Modification time:	15. 06. 2019 19:06

#	Program:	/corina/corina34_cracker 3.40 0067  02.08.2006

@<TRIPOS>MOLECULE
ASD01180031
  37   38    0    0    0
SMALL
NO_CHARGES


@<TRIPOS>ATOM
   1 N1             0.0655     1.2382     0.5151 N.ar    
   2 C2             0.0456    -0.0397     0.2225 C.ar    
   3 C3             1.1822    -0.6689    -0.3156 C.ar    
   4 N4             2.2874     0.0179    -0.5341 N.ar    
   5 C5             2.3248     1.3239    -0.2409 C.ar    
   6 C6             3.4865     2.0817    -0.4626 C.ar    
   7 C7             3.4965     3.4091    -0.1556 C.ar    
   8 C8             2.3662     4.0296     0.3777 C.ar    
   9 C9             1.2230     3.3246     0.6054 C.ar    
  10 C10            1.1768     1.9540     0.3008 C.ar    
  11 S11           -1.4188    -0.9775     0.5068 S.o2    
  12 O12           -0.9442    -2.2545     0.9106 O.2     
  13 O13           -2.1870    -0.1693     1.3876 O.2     
  14 C14           -2.2141    -1.0793    -1.1204 C.3     
  15 Cl15           2.4177     5.7229     0.7567 Cl      
  16 Cl16           4.9352     4.3408    -0.4310 Cl      
  17 N17            3.2547    -4.8722    -1.7689 N.am    
  18 N18            1.1413    -2.0218    -0.6186 N.pl3   
  19 C19            3.2149    -6.1868    -2.0633 C.2     
  20 C20            4.4649    -6.8953    -2.5178 C.3     
  21 O21            2.1732    -6.7996    -1.9624 O.2     
  22 C22            2.3564    -2.7105    -1.0605 C.3     
  23 C23            2.0395    -4.1835    -1.3270 C.3     
  24 H24            4.3685     1.6139    -0.8745 H       
  25 H25            0.3556     3.8175     1.0190 H       
  26 H26           -1.5433    -1.5749    -1.8223 H       
  27 H27           -3.1392    -1.6496    -1.0376 H       
  28 H28           -2.4375    -0.0746    -1.4791 H       
  29 H29            4.0878    -4.3821    -1.8495 H       
  30 H30            0.3081    -2.5119    -0.5380 H       
  31 H31            5.2934    -6.1877    -2.5471 H       
  32 H32            4.6995    -7.7008    -1.8218 H       
  33 H33            4.3059    -7.3101    -3.5132 H       
  34 H34            2.7246    -2.2468    -1.9756 H       
  35 H35            3.1181    -2.6375    -0.2843 H       
  36 H36            1.2778    -4.2565    -2.1032 H       
  37 H37            1.6714    -4.6472    -0.4119 H       
@<TRIPOS>BOND
   1    1    2 ar
   2    1   10 ar
   3    2    3 ar
   4    2   11 1
   5    3    4 ar
   6    3   18 1
   7    4    5 ar
   8    5    6 ar
   9    5   10 ar
  10    6    7 ar
  11    6   24 1
  12    7    8 ar
  13    7   16 1
  14    8    9 ar
  15    8   15 1
  16    9   10 ar
  17    9   25 1
  18   11   12 2
  19   11   13 2
  20   11   14 1
  21   14   26 1
  22   14   27 1
  23   14   28 1
  24   17   19 am
  25   17   23 1
  26   17   29 1
  27   18   22 1
  28   18   30 1
  29   19   20 1
  30   19   21 2
  31   20   31 1
  32   20   32 1
  33   20   33 1
  34   22   23 1
  35   22   34 1
  36   22   35 1
  37   23   36 1
  38   23   37 1

#	End of record

