#	Name: ASD01850016
#	Creating user name:	WinNT
#	Creation time:	15. 06. 2019 19:38

#	Modifying user name:	WinNT
#	Modification time:	15. 06. 2019 19:38

#	Program:	/corina/corina34_cracker 3.40 0067  02.08.2006

@<TRIPOS>MOLECULE
ASD01850016
  45   49    0    0    0
SMALL
NO_CHARGES


@<TRIPOS>ATOM
   1 Cl1            0.2471     0.3987     1.1349 Cl      
   2 C2             0.1073     2.0988     0.8129 C.ar    
   3 C3             1.2400     2.8928     0.7823 C.ar    
   4 C4             1.1281     4.2463     0.5259 C.ar    
   5 C5            -0.1153     4.8069     0.3006 C.ar    
   6 C6            -1.2475     4.0142     0.3315 C.ar    
   7 C7            -1.1362     2.6594     0.5812 C.ar    
   8 C8            -0.2367     6.2829     0.0216 C.3     
   9 N9             0.9559     6.7843    -0.6716 N.am    
  10 C10            1.8701     7.2849     0.3772 C.3     
  11 C11            1.1072     7.1040     1.7120 C.3     
  12 N12           -0.3021     7.0588     1.2847 N.am    
  13 C13           -1.5744     7.4065     1.4798 C.2     
  14 O14           -2.0468     7.7722     2.5383 O.2     
  15 C15           -2.3225     7.2790     0.2104 C.ar    
  16 C16           -1.5075     6.5851    -0.7198 C.ar    
  17 C17           -1.9642     6.3478    -1.9957 C.ar    
  18 C18           -3.2261     6.7763    -2.3713 C.ar    
  19 C19           -4.0328     7.4442    -1.4666 C.ar    
  20 C20           -3.5978     7.6912    -0.1755 C.ar    
  21 C21            1.1748     6.7873    -2.0015 C.2     
  22 O22            0.3804     6.2515    -2.7494 O.2     
  23 C23            2.3813     7.4422    -2.5507 C.ar    
  24 C24            2.5270     7.5984    -3.9297 C.ar    
  25 C25            3.6565     8.2118    -4.4376 C.ar    
  26 F26            3.7989     8.3637    -5.7724 F       
  27 C27            4.6429     8.6714    -3.5803 C.ar    
  28 C28            4.5037     8.5185    -2.2106 C.ar    
  29 C29            3.3758     7.9114    -1.6916 C.ar    
  30 F30            5.4699     8.9683    -1.3803 F       
  31 H31            2.2113     2.4550     0.9590 H       
  32 H32            2.0122     4.8662     0.5020 H       
  33 H33           -2.2186     4.4528     0.1557 H       
  34 H34           -2.0207     2.0402     0.6053 H       
  35 H35            2.7898     6.6999     0.3864 H       
  36 H36            2.0942     8.3385     0.2107 H       
  37 H37            1.3934     6.1703     2.1961 H       
  38 H38            1.2822     7.9521     2.3739 H       
  39 H39           -1.3377     5.8273    -2.7050 H       
  40 H40           -3.5818     6.5890    -3.3736 H       
  41 H41           -5.0179     7.7717    -1.7644 H       
  42 H42           -4.2375     8.2134     0.5206 H       
  43 H43            1.7586     7.2405    -4.5989 H       
  44 H44            5.5239     9.1504    -3.9814 H       
  45 H45            3.2681     7.7931    -0.6235 H       
@<TRIPOS>BOND
   1    1    2 1
   2    2    3 ar
   3    2    7 ar
   4    3    4 ar
   5    3   31 1
   6    4    5 ar
   7    4   32 1
   8    5    6 ar
   9    5    8 1
  10    6    7 ar
  11    6   33 1
  12    7   34 1
  13    8    9 1
  14    8   12 1
  15    8   16 1
  16    9   10 1
  17    9   21 am
  18   10   11 1
  19   10   35 1
  20   10   36 1
  21   11   12 1
  22   11   37 1
  23   11   38 1
  24   12   13 am
  25   13   14 2
  26   13   15 1
  27   15   16 ar
  28   15   20 ar
  29   16   17 ar
  30   17   18 ar
  31   17   39 1
  32   18   19 ar
  33   18   40 1
  34   19   20 ar
  35   19   41 1
  36   20   42 1
  37   21   22 2
  38   21   23 1
  39   23   24 ar
  40   23   29 ar
  41   24   25 ar
  42   24   43 1
  43   25   26 1
  44   25   27 ar
  45   27   28 ar
  46   27   44 1
  47   28   29 ar
  48   28   30 1
  49   29   45 1

#	End of record

