#	Name: ASD05720274
#	Creating user name:	WinNT
#	Creation time:	15. 06. 2019 21:02

#	Modifying user name:	WinNT
#	Modification time:	15. 06. 2019 21:02

#	Program:	/corina/corina34_cracker 3.40 0067  02.08.2006

@<TRIPOS>MOLECULE
ASD05720274
  48   52    0    0    0
SMALL
NO_CHARGES


@<TRIPOS>ATOM
   1 O1            -0.1051     1.1934     0.1307 O.3     
   2 C2             0.0754    -0.1220    -0.0314 C.2     
   3 N3             1.3620    -0.4855    -0.1221 N.am    
   4 C4             2.2047     0.7150    -0.0116 C.3     
   5 C5             1.1895     1.8612     0.1615 C.3     
   6 O6            -0.8433    -0.9150    -0.0903 O.2     
   7 C7             3.0272     0.9135    -1.2863 C.3     
   8 C8             2.0856     1.0575    -2.4836 C.3     
   9 C9             3.8787     2.1775    -1.1523 C.3     
  10 C10            3.5731    -3.2496    -0.6463 C.2     
  11 N11            3.1114    -2.0062    -0.4805 N.2     
  12 C12            1.8243    -1.7839    -0.2922 C.2     
  13 C13            0.9185    -2.8637    -0.2631 C.2     
  14 C14            1.3822    -4.1231    -0.4301 C.2     
  15 N15            2.7210    -4.3218    -0.6237 N.pl3   
  16 N16            3.4811    -5.4800    -0.8218 N.2     
  17 C17            4.7419    -5.1517    -0.9612 C.2     
  18 C18            4.8598    -3.7597    -0.8654 C.2     
  19 C19            6.1096    -2.9743    -0.9733 C.ar    
  20 C20            7.2279    -3.3342    -0.2191 C.ar    
  21 C21            8.3904    -2.6030    -0.3199 C.ar    
  22 C22            8.4507    -1.5030    -1.1754 C.ar    
  23 C23            7.3338    -1.1429    -1.9293 C.ar    
  24 C24            6.1725    -1.8766    -1.8337 C.ar    
  25 N25           11.2037     0.7672    -1.8429 N.pl3   
  26 N26            9.8831     0.3371    -2.0509 N.2     
  27 C27            9.7029    -0.7157    -1.2832 C.2     
  28 N28           10.8383    -0.9584    -0.6140 N.2     
  29 C29           11.7431    -0.0747    -0.9432 C.2     
  30 H30            2.8567     0.6463     0.8592 H       
  31 H31            1.2723     2.5723    -0.6605 H       
  32 H32            1.3383     2.3623     1.1180 H       
  33 H33            3.6774     0.0517    -1.4370 H       
  34 H34            1.3798     1.8666    -2.2956 H       
  35 H35            2.6667     1.2827    -3.3779 H       
  36 H36            1.5394     0.1257    -2.6304 H       
  37 H37            4.6090     2.0408    -0.3547 H       
  38 H38            4.3979     2.3672    -2.0917 H       
  39 H39            3.2358     3.0252    -0.9149 H       
  40 H40           -0.1357    -2.6870    -0.1086 H       
  41 H41            0.7028    -4.9624    -0.4104 H       
  42 H42            5.5564    -5.8414    -1.1265 H       
  43 H43            7.1812    -4.1857     0.4436 H       
  44 H44            9.2554    -2.8811     0.2638 H       
  45 H45            7.3813    -0.2910    -2.5915 H       
  46 H46            5.3093    -1.6005    -2.4211 H       
  47 H47           11.6422     1.5209    -2.2679 H       
  48 H48           12.7513    -0.0286    -0.5589 H       
@<TRIPOS>BOND
   1    1    2 1
   2    1    5 1
   3    2    3 am
   4    2    6 2
   5    3    4 1
   6    3   12 1
   7    4    5 1
   8    4    7 1
   9    4   30 1
  10    5   31 1
  11    5   32 1
  12    7    8 1
  13    7    9 1
  14    7   33 1
  15    8   34 1
  16    8   35 1
  17    8   36 1
  18    9   37 1
  19    9   38 1
  20    9   39 1
  21   10   11 1
  22   10   15 1
  23   10   18 2
  24   11   12 2
  25   12   13 1
  26   13   14 2
  27   13   40 1
  28   14   15 1
  29   14   41 1
  30   15   16 1
  31   16   17 2
  32   17   18 1
  33   17   42 1
  34   18   19 1
  35   19   20 ar
  36   19   24 ar
  37   20   21 ar
  38   20   43 1
  39   21   22 ar
  40   21   44 1
  41   22   23 ar
  42   22   27 1
  43   23   24 ar
  44   23   45 1
  45   24   46 1
  46   25   26 1
  47   25   29 1
  48   25   47 1
  49   26   27 2
  50   27   28 1
  51   28   29 2
  52   29   48 1

#	End of record

