#	Name: ASD01620001
#	Creating user name:	WinNT
#	Creation time:	15. 06. 2019 19:22

#	Modifying user name:	WinNT
#	Modification time:	15. 06. 2019 19:22

#	Program:	/corina/corina34_cracker 3.40 0067  02.08.2006

@<TRIPOS>MOLECULE
ASD01620001
 248  255    0    0    0
SMALL
NO_CHARGES


@<TRIPOS>ATOM
   1 O1            -2.8666    -1.5084     4.1550 O.2     
   2 C2            -3.1886    -0.3831     3.8312 C.2     
   3 C3            -2.4910     0.2220     2.6368 C.3     
   4 C4            -3.1697     1.4940     2.2117 C.ar    
   5 C5            -3.8901     1.5323     1.0325 C.ar    
   6 C6            -4.5142     2.7021     0.6415 C.ar    
   7 C7            -4.4183     3.8335     1.4300 C.ar    
   8 C8            -3.6987     3.7950     2.6096 C.ar    
   9 C9            -3.0782     2.6239     3.0027 C.ar    
  10 N10           -1.0764     0.4839     2.9788 N.am    
  11 C11           -0.1803     0.3427     1.9578 C.2     
  12 O12           -0.5551     0.1202     0.8254 O.2     
  13 C13            1.2932     0.4542     2.2642 C.3     
  14 C14            2.0978     0.0452     1.0291 C.3     
  15 C15            3.5929     0.1564     1.3346 C.3     
  16 C16            4.3851    -0.3622     0.1623 C.2     
  17 O17            5.7267    -0.3621     0.2061 O.3     
  18 O18            3.8127    -0.7781    -0.8171 O.2     
  19 N19            1.6009     1.8527     2.6236 N.am    
  20 C20            2.5654     2.0539     3.5557 C.2     
  21 O21            3.3596     1.1774     3.8345 O.2     
  22 C22            2.6229     3.3712     4.2988 C.3     
  23 C23            1.1954     3.7593     4.6943 C.3     
  24 C24            0.4963     4.4155     3.5020 C.3     
  25 C25           -0.9960     4.5650     3.8047 C.3     
  26 N26           -1.6404     5.3167     2.7249 N.pl3   
  27 C27           -2.9515     5.7111     2.8493 C.2     
  28 N28           -3.5874     6.3254     1.7965 N.pl3   
  29 N29           -3.5917     5.5026     3.9654 N.2     
  30 N30            3.4430     3.1660     5.5058 N.am    
  31 C31            4.1933     4.1782     6.0013 C.2     
  32 O32            5.1019     3.9182     6.7786 O.2     
  33 C33            3.9169     5.6170     5.6596 C.3     
  34 C34            3.8412     6.4445     6.9441 C.3     
  35 C35            2.3872     6.6811     7.3469 C.3     
  36 C36            1.7550     5.3748     7.7640 C.2     
  37 N37            2.3529     7.5982     8.5045 N.am    
  38 C38            1.1800     8.2490     8.7363 C.2     
  39 O39            0.3556     8.3516     7.8562 O.2     
  40 C40            0.9189     8.8026    10.1114 C.3     
  41 C41            0.5820    10.2897    10.0318 C.3     
  42 C42            0.5663    10.8763    11.4198 C.2     
  43 C43           -0.5096    11.0385    12.2060 C.2     
  44 N44           -0.1372    11.6027    13.3957 N.pl3   
  45 C45            1.2220    11.8228    13.4042 C.ar    
  46 C46            1.7231    11.3717    12.1696 C.ar    
  47 C47            2.0995    12.3596    14.3408 C.ar    
  48 C48            3.4425    12.4487    14.0477 C.ar    
  49 C49            3.9312    12.0079    12.8254 C.ar    
  50 C50            3.0884    11.4706    11.8939 C.ar    
  51 N51           -0.1692     8.0469    10.7593 N.am    
  52 C52           -1.4134     8.0768    10.2075 C.2     
  53 O53           -1.6467     8.6216     9.1524 O.2     
  54 C54           -2.5455     7.4027    10.9498 C.3     
  55 C55           -2.8759     8.2015    12.2123 C.3     
  56 N56           -3.7314     7.3620    10.0718 N.am    
  57 C57           -4.2309     6.1353     9.7661 C.2     
  58 O58           -3.7704     5.1345    10.2764 O.2     
  59 C59           -5.3615     6.0197     8.7749 C.3     
  60 C60           -5.0241     6.8264     7.5180 C.3     
  61 C61           -4.8238     8.2959     7.8936 C.3     
  62 C62           -4.4889     9.1024     6.6373 C.3     
  63 C63           -6.1077     8.8412     8.5224 C.3     
  64 N64           -5.5229     4.5955     8.4105 N.am    
  65 C65           -6.7403     4.2268     7.9210 C.2     
  66 O66           -7.6813     4.9889     7.9367 O.2     
  67 C67           -6.8893     2.8420     7.3371 C.3     
  68 N68           -5.8890     2.6794     6.2640 N.am    
  69 C69           -5.1182     1.5609     6.2927 C.2     
  70 O70           -5.3357     0.6741     7.0895 O.2     
  71 C71           -3.9647     1.4398     5.3227 C.3     
  72 C72           -2.6644     1.3137     6.1222 C.3     
  73 O73           -2.4934     2.4733     6.9396 O.3     
  74 C74           -2.7301     0.0693     7.0099 C.3     
  75 N75           -4.1536     0.2659     4.4858 N.am    
  76 O76            0.7740     5.3763     8.4771 O.2     
  77 N77            2.2810     4.2071     7.3440 N.am    
  78 C78            1.6972     2.9389     7.7879 C.3     
  79 C79            0.4431     2.6389     6.9645 C.3     
  80 C80            2.7002     1.8304     7.5977 C.2     
  81 C81           -0.5471     3.7629     7.1296 C.2     
  82 C82           -1.5089     3.8492     8.0621 C.2     
  83 N83           -2.2125     5.0116     7.9001 N.pl3   
  84 C84           -1.7077     5.7194     6.8325 C.ar    
  85 C85           -0.6385     4.9715     6.3070 C.ar    
  86 C86           -2.0417     6.9359     6.2459 C.ar    
  87 C87           -1.3288     7.3895     5.1580 C.ar    
  88 C88           -0.2784     6.6446     4.6392 C.ar    
  89 C89            0.0714     5.4508     5.2042 C.ar    
  90 O90            3.8112     2.0826     7.1818 O.2     
  91 N91            2.3625     0.5587     7.8897 N.am    
  92 C92            3.3687    -0.5031     7.8099 C.3     
  93 C93            4.2327    -0.4831     9.0724 C.3     
  94 C94            2.6811    -1.8390     7.6929 C.2     
  95 C95            4.9203     0.8528     9.1894 C.2     
  96 C96            6.1205     1.1800     8.6849 C.2     
  97 N97            6.4167     2.4802     8.9916 N.pl3   
  98 C98            5.3881     3.0354     9.7193 C.ar    
  99 C99            4.4030     2.0425     9.8697 C.ar    
 100 C100           5.1771     4.2942    10.2729 C.ar    
 101 C101           4.0138     4.5512    10.9644 C.ar    
 102 C102           3.0474     3.5660    11.1154 C.ar    
 103 C103           3.2308     2.3252    10.5737 C.ar    
 104 N104           3.4091    -2.9574     7.5038 N.am    
 105 O105           1.4726    -1.9077     7.7688 O.2     
 106 C106           2.7523    -4.2669     7.4996 C.3     
 107 C107           3.5121    -5.2070     6.5997 C.2     
 108 C108           2.7286    -4.8301     8.9220 C.3     
 109 C109           1.8534    -3.9412     9.8080 C.3     
 110 C110           1.8297    -4.5044    11.2303 C.3     
 111 N111           0.9917    -3.6533    12.0786 N.pl3   
 112 C112           0.8197    -3.9633    13.4070 C.2     
 113 N113           0.0333    -3.1646    14.2031 N.pl3   
 114 N114           1.4022    -5.0145    13.9115 N.2     
 115 N115           3.0889    -6.4766     6.4402 N.am    
 116 O116           4.5045    -4.8212     6.0190 O.2     
 117 C117           3.8275    -7.3906     5.5653 C.3     
 118 C118           3.5778    -8.8122     5.9985 C.2     
 119 C119           3.3560    -7.2070     4.1214 C.3     
 120 O120           1.9873    -7.6036     4.0133 O.3     
 121 C121           3.4938    -5.7363     3.7229 C.3     
 122 N122           4.2362    -9.8245     5.4000 N.am    
 123 O123           2.7843    -9.0454     6.8856 O.2     
 124 C124           3.9146   -11.2119     5.7435 C.3     
 125 C125           2.7437   -11.6759     4.9160 C.2     
 126 C126           5.1258   -12.1020     5.4575 C.3     
 127 C127           5.6374   -11.8277     4.0419 C.3     
 128 C128           6.2332   -11.7965     6.4681 C.3     
 129 N129           2.3328   -12.9574     4.9888 N.am    
 130 O130           2.1713   -10.8961     4.1845 O.2     
 131 H131          -2.5302    -0.4961     1.8098 H       
 132 H132          -3.9650     0.6484     0.4165 H       
 133 H133          -5.0764     2.7322    -0.2801 H       
 134 H134          -4.9053     4.7477     1.1241 H       
 135 H135          -3.6235     4.6790     3.2254 H       
 136 H136          -2.5159     2.5938     3.9244 H       
 137 H137          -0.8004     0.7363     3.8764 H       
 138 H138           1.5405    -0.2003     3.1023 H       
 139 H139           1.8570    -0.9840     0.7630 H       
 140 H140           1.8470     0.7037     0.1976 H       
 141 H141           3.8504     1.2003     1.5139 H       
 142 H142           3.8275    -0.4330     2.2210 H       
 143 H143           6.1913    -0.7045    -0.5697 H       
 144 H144           1.1342     2.5912     2.1918 H       
 145 H145           3.0588     4.1309     3.6592 H       
 146 H146           0.6453     2.8665     4.9917 H       
 147 H147           1.2273     4.4609     5.5279 H       
 148 H148           0.9309     5.3988     3.3221 H       
 149 H149           0.6269     3.7931     2.6167 H       
 150 H150          -1.4516     3.5778     3.8823 H       
 151 H151          -1.1240     5.0993     4.7461 H       
 152 H152          -1.1419     5.5362     1.9222 H       
 153 H153          -3.0917     6.5461     0.9925 H       
 154 H154          -4.5318     6.5382     1.8577 H       
 155 H155          -4.5361     5.7142     4.0296 H       
 156 H156           3.4363     2.2903     5.9574 H       
 157 H157           4.7382     5.9957     5.0413 H       
 158 H158           2.9894     5.7081     5.1055 H       
 159 H159           4.3525     5.9060     7.7447 H       
 160 H160           4.3416     7.4027     6.7887 H       
 161 H161           1.8320     7.1094     6.5173 H       
 162 H162           3.1255     7.7234     9.0757 H       
 163 H163           1.8316     8.6842    10.7121 H       
 164 H164           1.3335    10.8007     9.4299 H       
 165 H165          -0.3985    10.4160     9.5728 H       
 166 H166          -1.5196    10.7649    11.9389 H       
 167 H167          -0.7408    11.8161    14.1243 H       
 168 H168           1.7289    12.7056    15.2944 H       
 169 H169           4.1220    12.8661    14.7760 H       
 170 H170           4.9870    12.0852    12.6112 H       
 171 H171           3.4757    11.1297    10.9451 H       
 172 H172           0.0040     7.5263    11.5693 H       
 173 H173          -2.2503     6.3927    11.2210 H       
 174 H174          -3.1748     9.2123    11.9348 H       
 175 H175          -3.6919     7.7151    12.7468 H       
 176 H176          -1.9963     8.2460    12.8546 H       
 177 H177          -4.1393     8.1775     9.7418 H       
 178 H178          -6.2788     6.3984     9.2184 H       
 179 H179          -4.1089     6.4375     7.0715 H       
 180 H180          -5.8418     6.7425     6.8021 H       
 181 H181          -4.0051     8.3800     8.6083 H       
 182 H182          -5.3430     9.0916     5.9602 H       
 183 H183          -4.2592    10.1308     6.9162 H       
 184 H184          -3.6258     8.6593     6.1405 H       
 185 H185          -6.9052     8.8395     7.7794 H       
 186 H186          -6.3950     8.2124     9.3651 H       
 187 H187          -5.9375     9.8599     8.8705 H       
 188 H188          -4.7997     3.9563     8.5169 H       
 189 H189          -6.7312     2.0994     8.1162 H       
 190 H190          -7.8911     2.7339     6.9222 H       
 191 H191          -5.7875     3.3470     5.5642 H       
 192 H192          -3.9265     2.3450     4.7145 H       
 193 H193          -1.8226     1.2260     5.4353 H       
 194 H194          -3.1664     2.5729     7.6267 H       
 195 H195          -2.9490    -0.8041     6.3955 H       
 196 H196          -1.7725    -0.0702     7.5115 H       
 197 H197          -3.5156     0.1955     7.7550 H       
 198 H198          -5.0747    -0.0806     4.3927 H       
 199 H199           3.0460     4.2065     6.7476 H       
 200 H200           1.4309     3.0110     8.8424 H       
 201 H201           0.7130     2.5440     5.9128 H       
 202 H202          -0.0042     1.7069     7.3103 H       
 203 H203          -1.6996     3.1104     8.8264 H       
 204 H204          -2.9563     5.2946     8.4547 H       
 205 H205          -2.8574     7.5226     6.6419 H       
 206 H206          -1.5898     8.3339     4.7038 H       
 207 H207           0.2702     7.0143     3.7855 H       
 208 H208           0.8897     4.8767     4.7953 H       
 209 H209           1.4533     0.3465     8.1528 H       
 210 H210           3.9992    -0.3412     6.9356 H       
 211 H211           3.6022    -0.6450     9.9467 H       
 212 H212           4.9813    -1.2731     9.0130 H       
 213 H213           6.7582     0.5152     8.1211 H       
 214 H214           7.2302     2.9419     8.7348 H       
 215 H215           5.9230     5.0672    10.1611 H       
 216 H216           3.8521     5.5290    11.3937 H       
 217 H217           2.1411     3.7838    11.6608 H       
 218 H218           2.4746     1.5637    10.6952 H       
 219 H219           4.3679    -2.8952     7.3706 H       
 220 H220           1.7310    -4.1600     7.1341 H       
 221 H221           2.3208    -5.8408     8.9058 H       
 222 H222           3.7429    -4.8539     9.3204 H       
 223 H223           2.2612    -2.9305     9.8241 H       
 224 H224           0.8391    -3.9174     9.4096 H       
 225 H225           1.4219    -5.5151    11.2141 H       
 226 H226           2.8440    -4.5282    11.6287 H       
 227 H227           0.5582    -2.8710    11.7031 H       
 228 H228          -0.4002    -2.3823    13.8276 H       
 229 H229          -0.0881    -3.3834    15.1403 H       
 230 H230           1.2808    -5.2333    14.8487 H       
 231 H231           2.2951    -6.7852     6.9046 H       
 232 H232           4.8936    -7.1731     5.6298 H       
 233 H233           3.9657    -7.8216     3.4592 H       
 234 H234           1.8253    -8.5267     4.2512 H       
 235 H235           4.5477    -5.4580     3.7197 H       
 236 H236           3.0761    -5.5890     2.7270 H       
 237 H237           2.9559    -5.1141     4.4382 H       
 238 H238           4.9229    -9.6345     4.7419 H       
 239 H239           3.6594   -11.2745     6.8014 H       
 240 H240           4.8353   -13.1491     5.5423 H       
 241 H241           5.8441   -10.7633     3.9302 H       
 242 H242           6.5517   -12.3954     3.8696 H       
 243 H243           4.8807   -12.1288     3.3174 H       
 244 H244           5.8687   -11.9919     7.4766 H       
 245 H245           7.0961   -12.4305     6.2644 H       
 246 H246           6.5237   -10.7493     6.3833 H       
 247 H247           2.8339   -13.5982     5.5172 H       
 248 H248           1.5359   -13.2389     4.5128 H       
@<TRIPOS>BOND
   1    1    2 2
   2    2    3 1
   3    2   75 am
   4    3    4 1
   5    3   10 1
   6    3  131 1
   7    4    5 ar
   8    4    9 ar
   9    5    6 ar
  10    5  132 1
  11    6    7 ar
  12    6  133 1
  13    7    8 ar
  14    7  134 1
  15    8    9 ar
  16    8  135 1
  17    9  136 1
  18   10   11 am
  19   10  137 1
  20   11   12 2
  21   11   13 1
  22   13   14 1
  23   13   19 1
  24   13  138 1
  25   14   15 1
  26   14  139 1
  27   14  140 1
  28   15   16 1
  29   15  141 1
  30   15  142 1
  31   16   17 1
  32   16   18 2
  33   17  143 1
  34   19   20 am
  35   19  144 1
  36   20   21 2
  37   20   22 1
  38   22   23 1
  39   22   30 1
  40   22  145 1
  41   23   24 1
  42   23  146 1
  43   23  147 1
  44   24   25 1
  45   24  148 1
  46   24  149 1
  47   25   26 1
  48   25  150 1
  49   25  151 1
  50   26   27 1
  51   26  152 1
  52   27   28 1
  53   27   29 2
  54   28  153 1
  55   28  154 1
  56   29  155 1
  57   30   31 am
  58   30  156 1
  59   31   32 2
  60   31   33 1
  61   33   34 1
  62   33  157 1
  63   33  158 1
  64   34   35 1
  65   34  159 1
  66   34  160 1
  67   35   36 1
  68   35   37 1
  69   35  161 1
  70   36   76 2
  71   36   77 am
  72   37   38 am
  73   37  162 1
  74   38   39 2
  75   38   40 1
  76   40   41 1
  77   40   51 1
  78   40  163 1
  79   41   42 1
  80   41  164 1
  81   41  165 1
  82   42   43 2
  83   42   46 1
  84   43   44 1
  85   43  166 1
  86   44   45 1
  87   44  167 1
  88   45   46 ar
  89   45   47 ar
  90   46   50 ar
  91   47   48 ar
  92   47  168 1
  93   48   49 ar
  94   48  169 1
  95   49   50 ar
  96   49  170 1
  97   50  171 1
  98   51   52 am
  99   51  172 1
 100   52   53 2
 101   52   54 1
 102   54   55 1
 103   54   56 1
 104   54  173 1
 105   55  174 1
 106   55  175 1
 107   55  176 1
 108   56   57 am
 109   56  177 1
 110   57   58 2
 111   57   59 1
 112   59   60 1
 113   59   64 1
 114   59  178 1
 115   60   61 1
 116   60  179 1
 117   60  180 1
 118   61   62 1
 119   61   63 1
 120   61  181 1
 121   62  182 1
 122   62  183 1
 123   62  184 1
 124   63  185 1
 125   63  186 1
 126   63  187 1
 127   64   65 am
 128   64  188 1
 129   65   66 2
 130   65   67 1
 131   67   68 1
 132   67  189 1
 133   67  190 1
 134   68   69 am
 135   68  191 1
 136   69   70 2
 137   69   71 1
 138   71   72 1
 139   71   75 1
 140   71  192 1
 141   72   73 1
 142   72   74 1
 143   72  193 1
 144   73  194 1
 145   74  195 1
 146   74  196 1
 147   74  197 1
 148   75  198 1
 149   77   78 1
 150   77  199 1
 151   78   79 1
 152   78   80 1
 153   78  200 1
 154   79   81 1
 155   79  201 1
 156   79  202 1
 157   80   90 2
 158   80   91 am
 159   81   82 2
 160   81   85 1
 161   82   83 1
 162   82  203 1
 163   83   84 1
 164   83  204 1
 165   84   85 ar
 166   84   86 ar
 167   85   89 ar
 168   86   87 ar
 169   86  205 1
 170   87   88 ar
 171   87  206 1
 172   88   89 ar
 173   88  207 1
 174   89  208 1
 175   91   92 1
 176   91  209 1
 177   92   93 1
 178   92   94 1
 179   92  210 1
 180   93   95 1
 181   93  211 1
 182   93  212 1
 183   94  104 am
 184   94  105 2
 185   95   96 2
 186   95   99 1
 187   96   97 1
 188   96  213 1
 189   97   98 1
 190   97  214 1
 191   98   99 ar
 192   98  100 ar
 193   99  103 ar
 194  100  101 ar
 195  100  215 1
 196  101  102 ar
 197  101  216 1
 198  102  103 ar
 199  102  217 1
 200  103  218 1
 201  104  106 1
 202  104  219 1
 203  106  107 1
 204  106  108 1
 205  106  220 1
 206  107  115 am
 207  107  116 2
 208  108  109 1
 209  108  221 1
 210  108  222 1
 211  109  110 1
 212  109  223 1
 213  109  224 1
 214  110  111 1
 215  110  225 1
 216  110  226 1
 217  111  112 1
 218  111  227 1
 219  112  113 1
 220  112  114 2
 221  113  228 1
 222  113  229 1
 223  114  230 1
 224  115  117 1
 225  115  231 1
 226  117  118 1
 227  117  119 1
 228  117  232 1
 229  118  122 am
 230  118  123 2
 231  119  120 1
 232  119  121 1
 233  119  233 1
 234  120  234 1
 235  121  235 1
 236  121  236 1
 237  121  237 1
 238  122  124 1
 239  122  238 1
 240  124  125 1
 241  124  126 1
 242  124  239 1
 243  125  129 am
 244  125  130 2
 245  126  127 1
 246  126  128 1
 247  126  240 1
 248  127  241 1
 249  127  242 1
 250  127  243 1
 251  128  244 1
 252  128  245 1
 253  128  246 1
 254  129  247 1
 255  129  248 1

#	End of record

