#	Name: ASD00122018
#	Creating user name:	WinNT
#	Creation time:	15. 06. 2019 18:31

#	Modifying user name:	WinNT
#	Modification time:	15. 06. 2019 18:31

#	Program:	/corina/corina34_cracker 3.40 0067  02.08.2006

@<TRIPOS>MOLECULE
ASD00122018
  41   42    0    0    0
SMALL
NO_CHARGES


@<TRIPOS>ATOM
   1 C1            -0.0168     1.3908     0.0097 C.ar    
   2 C2             0.0021    -0.0041     0.0020 C.ar    
   3 C3             1.2189    -0.6861    -0.0128 C.ar    
   4 C4             2.4025     0.0169    -0.0203 C.ar    
   5 C5             2.3848     1.4138    -0.0131 C.ar    
   6 C6             1.1656     2.0958     0.0022 C.ar    
   7 C7             3.6542     2.1692    -0.0206 C.2     
   8 N8             3.6365     3.5168    -0.0137 N.am    
   9 O9             4.7149     1.5753    -0.0331 O.2     
  10 C10            4.8954     4.2660    -0.0212 C.3     
  11 C11            4.6598     5.6533    -0.6217 C.3     
  12 C12            5.4109     4.4115     1.4121 C.3     
  13 C13            5.7645     3.0312     1.9694 C.3     
  14 C14            4.2643     5.5117    -2.0929 C.3     
  15 C15           -1.2721    -0.7623     0.0101 C.ar    
  16 C16           -1.2569    -2.1562     0.0025 C.ar    
  17 C17           -2.4459    -2.8566     0.0100 C.ar    
  18 C18           -3.6514    -2.1781     0.0246 C.ar    
  19 C19           -3.6726    -0.7950     0.0318 C.ar    
  20 C20           -2.4898    -0.0840     0.0311 C.ar    
  21 H21           -0.9595     1.9178     0.0170 H       
  22 H22            1.2324    -1.7660    -0.0180 H       
  23 H23            3.3445    -0.5113    -0.0314 H       
  24 H24            1.1507     3.1757     0.0074 H       
  25 H25            2.7902     3.9907    -0.0037 H       
  26 H26            5.6328     3.7314    -0.6199 H       
  27 H27            3.8594     6.1539    -0.0768 H       
  28 H28            5.5741     6.2420    -0.5463 H       
  29 H29            6.2989     5.0435     1.4164 H       
  30 H30            4.6381     4.8665     2.0316 H       
  31 H31            4.8765     2.3992     1.9651 H       
  32 H32            6.5373     2.5763     1.3498 H       
  33 H33            6.1317     3.1349     2.9905 H       
  34 H34            4.0964     6.5001    -2.5207 H       
  35 H35            5.0647     5.0112    -2.6378 H       
  36 H36            3.3500     4.9231    -2.1683 H       
  37 H37           -0.3164    -2.6870    -0.0097 H       
  38 H38           -2.4354    -3.9366     0.0041 H       
  39 H39           -4.5795    -2.7304     0.0301 H       
  40 H40           -4.6167    -0.2705     0.0428 H       
  41 H41           -2.5076     0.9958     0.0371 H       
@<TRIPOS>BOND
   1    1    2 ar
   2    1    6 ar
   3    1   21 1
   4    2    3 ar
   5    2   15 1
   6    3    4 ar
   7    3   22 1
   8    4    5 ar
   9    4   23 1
  10    5    6 ar
  11    5    7 1
  12    6   24 1
  13    7    8 am
  14    7    9 2
  15    8   10 1
  16    8   25 1
  17   10   11 1
  18   10   12 1
  19   10   26 1
  20   11   14 1
  21   11   27 1
  22   11   28 1
  23   12   13 1
  24   12   29 1
  25   12   30 1
  26   13   31 1
  27   13   32 1
  28   13   33 1
  29   14   34 1
  30   14   35 1
  31   14   36 1
  32   15   16 ar
  33   15   20 ar
  34   16   17 ar
  35   16   37 1
  36   17   18 ar
  37   17   38 1
  38   18   19 ar
  39   18   39 1
  40   19   20 ar
  41   19   40 1
  42   20   41 1

#	End of record

