#	Name: ASD03330473
#	Creating user name:	WinNT
#	Creation time:	15. 06. 2019 20:37

#	Modifying user name:	WinNT
#	Modification time:	15. 06. 2019 20:37

#	Program:	/corina/corina34_cracker 3.40 0067  02.08.2006

@<TRIPOS>MOLECULE
ASD03330473
  57   59    0    0    0
SMALL
NO_CHARGES


@<TRIPOS>ATOM
   1 C1            -0.6052     0.9475     0.4483 C.3     
   2 N2            -0.6787    -0.5095     0.2705 N.3     
   3 C3            -0.0894    -0.9199    -1.0169 C.3     
   4 C4             1.2680    -0.2760    -1.1332 C.2     
   5 N5             1.6825     0.7609    -0.3488 N.pl3   
   6 C6             0.8495     1.3692     0.6922 C.3     
   7 C7             2.2864    -0.5708    -1.9785 C.2     
   8 N8             3.3055     0.2763    -1.7055 N.2     
   9 C9             2.9485     1.0779    -0.7267 C.2     
  10 C10            3.7846     2.1455    -0.1361 C.ar    
  11 C11            2.2836    -1.6239    -3.0091 C.2     
  12 O12            1.3012    -2.3250    -3.1596 O.2     
  13 C13            3.3670    -2.8573    -4.8097 C.3     
  14 N14            3.3697    -1.8103    -3.7851 N.am    
  15 C15           -2.0632    -0.9854     0.3913 C.3     
  16 C16            4.4704     3.0376    -0.9633 C.ar    
  17 C17            2.7267    -2.3165    -6.0898 C.3     
  18 C18            3.4825    -1.0684    -6.5501 C.3     
  19 C19            2.7920    -3.3846    -7.1833 C.3     
  20 C20            1.2653    -1.9557    -5.8159 C.3     
  21 C21            4.7839    -3.2822    -5.0976 C.2     
  22 O22            5.7083    -2.5620    -4.7850 O.2     
  23 N23            5.0238    -4.4625    -5.7024 N.am    
  24 C24            6.4020    -4.9220    -5.8912 C.3     
  25 C25            5.2511     4.0343    -0.4024 C.ar    
  26 C26            5.3511     4.1450     0.9740 C.ar    
  27 C27            4.6727     3.2626     1.7963 C.ar    
  28 C28            3.8869     2.2693     1.2502 C.ar    
  29 F29            4.3728     2.9282    -2.3063 F       
  30 F30            5.9161     4.8993    -1.1990 F       
  31 H31           -0.9800     1.4412    -0.4483 H       
  32 H32           -1.2152     1.2393     1.3031 H       
  33 H33            0.0135    -2.0046    -1.0460 H       
  34 H34           -0.7265    -0.5874    -1.8365 H       
  35 H35            0.9313     2.4550     0.6410 H       
  36 H36            1.1739     1.0212     1.6730 H       
  37 H37            2.7963    -3.7143    -4.4520 H       
  38 H38            4.1533    -1.2512    -3.6650 H       
  39 H39           -2.6928    -0.4571    -0.3247 H       
  40 H40           -2.0988    -2.0553     0.1863 H       
  41 H41           -2.4253    -0.7968     1.4020 H       
  42 H42            4.5236    -1.3255    -6.7452 H       
  43 H43            3.0263    -0.6831    -7.4620 H       
  44 H44            3.4360    -0.3075    -5.7711 H       
  45 H45            2.2499    -4.2722    -6.8571 H       
  46 H46            2.3397    -2.9978    -8.0965 H       
  47 H47            3.8329    -3.6448    -7.3754 H       
  48 H48            1.2188    -1.1948    -5.0368 H       
  49 H49            0.8091    -1.5704    -6.7278 H       
  50 H50            0.7268    -2.8449    -5.4879 H       
  51 H51            4.2840    -5.0077    -6.0128 H       
  52 H52            6.8886    -5.0198    -4.9207 H       
  53 H53            6.3969    -5.8891    -6.3941 H       
  54 H54            6.9460    -4.1992    -6.4992 H       
  55 H55            5.9615     4.9232     1.4079 H       
  56 H56            4.7556     3.3546     2.8692 H       
  57 H57            3.3585     1.5824     1.8947 H       
@<TRIPOS>BOND
   1    1    2 1
   2    1    6 1
   3    1   31 1
   4    1   32 1
   5    2    3 1
   6    2   15 1
   7    3    4 1
   8    3   33 1
   9    3   34 1
  10    4    5 1
  11    4    7 2
  12    5    6 1
  13    5    9 1
  14    6   35 1
  15    6   36 1
  16    7    8 1
  17    7   11 1
  18    8    9 2
  19    9   10 1
  20   10   16 ar
  21   10   28 ar
  22   11   12 2
  23   11   14 am
  24   13   14 1
  25   13   17 1
  26   13   21 1
  27   13   37 1
  28   14   38 1
  29   15   39 1
  30   15   40 1
  31   15   41 1
  32   16   25 ar
  33   16   29 1
  34   17   18 1
  35   17   19 1
  36   17   20 1
  37   18   42 1
  38   18   43 1
  39   18   44 1
  40   19   45 1
  41   19   46 1
  42   19   47 1
  43   20   48 1
  44   20   49 1
  45   20   50 1
  46   21   22 2
  47   21   23 am
  48   23   24 1
  49   23   51 1
  50   24   52 1
  51   24   53 1
  52   24   54 1
  53   25   26 ar
  54   25   30 1
  55   26   27 ar
  56   26   55 1
  57   27   28 ar
  58   27   56 1
  59   28   57 1

#	End of record

