#	Name: ASD01680064
#	Creating user name:	WinNT
#	Creation time:	15. 06. 2019 19:22

#	Modifying user name:	WinNT
#	Modification time:	15. 06. 2019 19:22

#	Program:	/corina/corina34_cracker 3.40 0067  02.08.2006

@<TRIPOS>MOLECULE
ASD01680064
  85   88    0    0    0
SMALL
NO_CHARGES


@<TRIPOS>ATOM
   1 N1            -0.4974    -1.5695    -2.3231 N.am    
   2 C2            -0.2138    -2.9365    -2.7966 C.3     
   3 C3             1.0717    -3.3587    -2.0422 C.3     
   4 C4             1.8655    -2.0260    -2.0094 C.3     
   5 C5             0.7556    -0.9665    -1.8456 C.3     
   6 C6            -1.7044    -0.9698    -2.3319 C.2     
   7 O7            -2.6548    -1.5247    -2.8469 O.2     
   8 O8            -1.8570     0.2442    -1.7700 O.3     
   9 C9            -1.3707    -3.8733    -2.4429 C.3     
  10 N10           -1.7124    -3.7144    -1.0272 N.pl3   
  11 C11           -2.7987    -4.3981    -0.4935 C.ar    
  12 C12           -3.5568    -5.2312    -1.3092 C.ar    
  13 C13           -4.6357    -5.9063    -0.7642 C.ar    
  14 C14           -4.9197    -5.7233     0.5844 C.ar    
  15 C15           -4.1244    -4.8811     1.3339 C.ar    
  16 N16           -3.0989    -4.2543     0.7882 N.ar    
  17 Cl17          -5.6119    -6.9569    -1.7425 Cl      
  18 O18            2.7600    -1.9976    -0.8954 O.3     
  19 C19            3.9416    -1.2255    -1.1182 C.3     
  20 C20            4.8074    -1.2650     0.1147 C.2     
  21 N21            5.9811    -0.6029     0.1353 N.am    
  22 O22            4.4480    -1.8925     1.0883 O.2     
  23 C23            6.8228    -0.6412     1.3338 C.3     
  24 C24            8.0879     0.1855     1.0952 C.3     
  25 N25            7.7150     1.5420     0.6865 N.am    
  26 S26            8.6458     2.3614    -0.4109 S.o2    
  27 O27            8.0095     3.6146    -0.6204 O.2     
  28 O28            9.9905     2.2369     0.0311 O.2     
  29 C29            8.5413     1.4889    -1.9382 C.ar    
  30 C30            9.4340     0.4704    -2.2148 C.ar    
  31 C31            9.3520    -0.2141    -3.4130 C.ar    
  32 C32            8.3770     0.1197    -4.3343 C.ar    
  33 C33            7.4837     1.1376    -4.0573 C.ar    
  34 C34            7.5630     1.8192    -2.8573 C.ar    
  35 C35            6.5859     2.9255    -2.5531 C.3     
  36 C36            8.2882    -0.6259    -5.6410 C.3     
  37 C37           10.4969     0.1066    -1.2104 C.3     
  38 C38            8.8945     0.2478     2.3667 C.2     
  39 O39            9.1333     1.3157     2.8789 O.2     
  40 O40            9.3476    -0.8831     2.9302 O.3     
  41 C41           -3.1848     0.8298    -1.8163 C.3     
  42 C42           -3.1630     2.1782    -1.1438 C.ar    
  43 C43           -2.8881     3.3143    -1.8817 C.ar    
  44 C44           -2.8679     4.5512    -1.2648 C.ar    
  45 C45           -3.1231     4.6520     0.0901 C.ar    
  46 C46           -3.3989     3.5160     0.8279 C.ar    
  47 C47           -3.4233     2.2796     0.2101 C.ar    
  48 H48           -0.0396    -2.9368    -3.8725 H       
  49 H49            0.8386    -3.6996    -1.0335 H       
  50 H50            1.6158    -4.1241    -2.5956 H       
  51 H51            2.4067    -1.8764    -2.9437 H       
  52 H52            0.9934    -0.0852    -2.4414 H       
  53 H53            0.6579    -0.6912    -0.7955 H       
  54 H54           -2.2378    -3.6272    -3.0558 H       
  55 H55           -1.0734    -4.9049    -2.6314 H       
  56 H56           -1.1806    -3.1322    -0.4623 H       
  57 H57           -3.3076    -5.3497    -2.3533 H       
  58 H58           -5.7543    -6.2348     1.0406 H       
  59 H59           -4.3413    -4.7360     2.3819 H       
  60 H60            4.4926    -1.6398    -1.9625 H       
  61 H61            3.6657    -0.1936    -1.3355 H       
  62 H62            6.2686    -0.1009    -0.6434 H       
  63 H63            6.2718    -0.2269     2.1781 H       
  64 H64            7.0987    -1.6731     1.5511 H       
  65 H65            8.6833    -0.2799     0.3097 H       
  66 H66            6.9228     1.9601     1.0587 H       
  67 H67           10.0499    -1.0094    -3.6294 H       
  68 H68            6.7221     1.3986    -4.7773 H       
  69 H69            7.0456     3.8880    -2.7772 H       
  70 H70            5.6920     2.7988    -3.1637 H       
  71 H71            6.3134     2.8897    -1.4983 H       
  72 H72            7.6271    -1.4847    -5.5251 H       
  73 H73            7.8921     0.0362    -6.4109 H       
  74 H74            9.2812    -0.9684    -5.9321 H       
  75 H75           10.0644    -0.5291    -0.4378 H       
  76 H76           11.3030    -0.4288    -1.7122 H       
  77 H77           10.8922     1.0144    -0.7547 H       
  78 H78            9.8603    -0.7927     3.7450 H       
  79 H79           -3.4943     0.9468    -2.8549 H       
  80 H80           -3.8881     0.1771    -1.2990 H       
  81 H81           -2.6887     3.2355    -2.9402 H       
  82 H82           -2.6525     5.4387    -1.8412 H       
  83 H83           -3.1067     5.6183     0.5722 H       
  84 H84           -3.5980     3.5947     1.8864 H       
  85 H85           -3.6424     1.3925     0.7858 H       
@<TRIPOS>BOND
   1    1    2 1
   2    1    5 1
   3    1    6 am
   4    2    3 1
   5    2    9 1
   6    2   48 1
   7    3    4 1
   8    3   49 1
   9    3   50 1
  10    4    5 1
  11    4   18 1
  12    4   51 1
  13    5   52 1
  14    5   53 1
  15    6    7 2
  16    6    8 1
  17    8   41 1
  18    9   10 1
  19    9   54 1
  20    9   55 1
  21   10   11 1
  22   10   56 1
  23   11   12 ar
  24   11   16 ar
  25   12   13 ar
  26   12   57 1
  27   13   14 ar
  28   13   17 1
  29   14   15 ar
  30   14   58 1
  31   15   16 ar
  32   15   59 1
  33   18   19 1
  34   19   20 1
  35   19   60 1
  36   19   61 1
  37   20   21 am
  38   20   22 2
  39   21   23 1
  40   21   62 1
  41   23   24 1
  42   23   63 1
  43   23   64 1
  44   24   25 1
  45   24   38 1
  46   24   65 1
  47   25   26 am
  48   25   66 1
  49   26   27 2
  50   26   28 2
  51   26   29 1
  52   29   30 ar
  53   29   34 ar
  54   30   31 ar
  55   30   37 1
  56   31   32 ar
  57   31   67 1
  58   32   33 ar
  59   32   36 1
  60   33   34 ar
  61   33   68 1
  62   34   35 1
  63   35   69 1
  64   35   70 1
  65   35   71 1
  66   36   72 1
  67   36   73 1
  68   36   74 1
  69   37   75 1
  70   37   76 1
  71   37   77 1
  72   38   39 2
  73   38   40 1
  74   40   78 1
  75   41   42 1
  76   41   79 1
  77   41   80 1
  78   42   43 ar
  79   42   47 ar
  80   43   44 ar
  81   43   81 1
  82   44   45 ar
  83   44   82 1
  84   45   46 ar
  85   45   83 1
  86   46   47 ar
  87   46   84 1
  88   47   85 1

#	End of record

