#	Name: ASD05730053
#	Creating user name:	WinNT
#	Creation time:	15. 06. 2019 21:02

#	Modifying user name:	WinNT
#	Modification time:	15. 06. 2019 21:02

#	Program:	/corina/corina34_cracker 3.40 0067  02.08.2006

@<TRIPOS>MOLECULE
ASD05730053
  85   91    0    0    0
SMALL
NO_CHARGES


@<TRIPOS>ATOM
   1 C1            -0.0328     1.4997     0.0101 C.3     
   2 C2            -0.0173    -0.0072    -0.0017 C.ar    
   3 C3            -1.0449    -0.7124     0.5973 C.ar    
   4 C4            -1.0338    -2.0934     0.5883 C.ar    
   5 C5             0.0112    -2.7739    -0.0235 C.ar    
   6 C6             1.0419    -2.0625    -0.6243 C.ar    
   7 C7             1.0217    -0.6816    -0.6166 C.ar    
   8 N8             0.0259    -4.1718    -0.0341 N.pl3   
   9 C9             0.5389    -4.8491    -1.1237 C.ar    
  10 N10            0.6467    -6.1675    -1.0622 N.ar    
  11 C11            1.1347    -6.8532    -2.0896 C.ar    
  12 C12            1.5351    -6.1491    -3.2459 C.ar    
  13 C13            1.4007    -4.7526    -3.2615 C.ar    
  14 N14            0.9008    -4.1543    -2.1966 N.ar    
  15 N15            1.2507    -8.2209    -2.0346 N.am    
  16 C16            1.7468    -8.9106    -3.0799 C.2     
  17 C17            2.1709    -8.2104    -4.2936 C.2     
  18 C18            2.0583    -6.8472    -4.3581 C.2     
  19 C19            0.8496    -8.9048    -0.8804 C.ar    
  20 O20            1.8434   -10.1232    -3.0148 O.2     
  21 C21            2.7164    -8.9703    -5.4426 C.ar    
  22 C22           -0.2275    -9.7800    -0.9291 C.ar    
  23 C23            4.0104    -9.4870    -5.3892 C.ar    
  24 C24            1.2155     2.0218     0.7295 C.3     
  25 C25            1.9356    -9.1765    -6.5798 C.ar    
  26 C26            2.4491    -9.8849    -7.6466 C.ar    
  27 C27            3.7359   -10.3903    -7.5899 C.ar    
  28 C28            4.5130   -10.1940    -6.4626 C.ar    
  29 C29            0.5337    -8.6271    -6.6428 C.3     
  30 S30            4.3846   -11.2939    -8.9564 S.o2    
  31 C31            5.1676   -10.0346   -10.0011 C.3     
  32 O32            5.3663   -12.1443    -8.3799 O.2     
  33 O33            3.2362   -11.8308    -9.5984 O.2     
  34 N34            1.1854     3.4853     0.7796 N.3     
  35 C35            1.4494     4.0978    -0.5244 C.3     
  36 C36            0.2384     3.9071    -1.4439 C.3     
  37 S37           -0.0185     2.1244    -1.6982 S.3     
  38 C38            5.6669   -10.6820   -11.2958 C.3     
  39 C39            6.2715    -9.6046   -12.1989 C.3     
  40 N40            5.2547    -8.5885   -12.4991 N.3     
  41 C41            4.7945    -7.9200   -11.2753 C.3     
  42 C42            4.1458    -8.9471   -10.3446 C.3     
  43 C43            5.7580    -7.6123   -13.4747 C.3     
  44 C44            1.5316    -8.7136     0.3141 C.ar    
  45 C45            1.1336    -9.3895     1.4508 C.ar    
  46 C46            0.0571   -10.2560     1.4003 C.ar    
  47 C47           -0.6206   -10.4530     0.2111 C.ar    
  48 H48           -0.9265     1.8526     0.5247 H       
  49 H49           -1.8570    -0.1827     1.0731 H       
  50 H50           -1.8365    -2.6436     1.0566 H       
  51 H51            1.8560    -2.5886    -1.1005 H       
  52 H52            1.8227    -0.1278    -1.0835 H       
  53 H53           -0.3241    -4.6663     0.7235 H       
  54 H54            1.6966    -4.1798    -4.1280 H       
  55 H55            2.3661    -6.3132    -5.2449 H       
  56 H56           -0.7574    -9.9340    -1.8574 H       
  57 H57            4.6182    -9.3340    -4.5097 H       
  58 H58            1.2412     1.6251     1.7444 H       
  59 H59            2.1061     1.6961     0.1919 H       
  60 H60            1.8453   -10.0455    -8.5275 H       
  61 H61            5.5167   -10.5908    -6.4242 H       
  62 H62            0.5560    -7.6219    -7.0637 H       
  63 H63           -0.0808    -9.2709    -7.2721 H       
  64 H64            0.1121    -8.5912    -5.6383 H       
  65 H65            6.0083    -9.5905    -9.4682 H       
  66 H66            0.3132     3.8160     1.1645 H       
  67 H67            1.6398     5.1629    -0.3923 H       
  68 H68            2.3237     3.6280    -0.9748 H       
  69 H69           -0.6465     4.3420    -0.9791 H       
  70 H70            0.4268     4.3904    -2.4026 H       
  71 H71            6.4261   -11.4277   -11.0605 H       
  72 H72            4.8325   -11.1605   -11.8086 H       
  73 H73            7.1144    -9.1359   -11.6910 H       
  74 H74            6.6151   -10.0601   -13.1277 H       
  75 H75            5.6443    -7.4593   -10.7716 H       
  76 H76            4.0654    -7.1520   -11.5332 H       
  77 H77            3.2875    -9.3984   -10.8424 H       
  78 H78            3.8184    -8.4534    -9.4296 H       
  79 H79            6.0225    -8.1258   -14.3991 H       
  80 H80            4.9851    -6.8713   -13.6791 H       
  81 H81            6.6397    -7.1155   -13.0699 H       
  82 H82            2.3727    -8.0372     0.3540 H       
  83 H83            1.6638    -9.2415     2.3799 H       
  84 H84           -0.2521   -10.7837     2.2905 H       
  85 H85           -1.4612   -11.1301     0.1750 H       
@<TRIPOS>BOND
   1    1    2 1
   2    1   24 1
   3    1   37 1
   4    1   48 1
   5    2    3 ar
   6    2    7 ar
   7    3    4 ar
   8    3   49 1
   9    4    5 ar
  10    4   50 1
  11    5    6 ar
  12    5    8 1
  13    6    7 ar
  14    6   51 1
  15    7   52 1
  16    8    9 1
  17    8   53 1
  18    9   10 ar
  19    9   14 ar
  20   10   11 ar
  21   11   12 ar
  22   11   15 1
  23   12   13 ar
  24   12   18 1
  25   13   14 ar
  26   13   54 1
  27   15   16 am
  28   15   19 1
  29   16   17 1
  30   16   20 2
  31   17   18 2
  32   17   21 1
  33   18   55 1
  34   19   22 ar
  35   19   44 ar
  36   21   23 ar
  37   21   25 ar
  38   22   47 ar
  39   22   56 1
  40   23   28 ar
  41   23   57 1
  42   24   34 1
  43   24   58 1
  44   24   59 1
  45   25   26 ar
  46   25   29 1
  47   26   27 ar
  48   26   60 1
  49   27   28 ar
  50   27   30 1
  51   28   61 1
  52   29   62 1
  53   29   63 1
  54   29   64 1
  55   30   31 1
  56   30   32 2
  57   30   33 2
  58   31   38 1
  59   31   42 1
  60   31   65 1
  61   34   35 1
  62   34   66 1
  63   35   36 1
  64   35   67 1
  65   35   68 1
  66   36   37 1
  67   36   69 1
  68   36   70 1
  69   38   39 1
  70   38   71 1
  71   38   72 1
  72   39   40 1
  73   39   73 1
  74   39   74 1
  75   40   41 1
  76   40   43 1
  77   41   42 1
  78   41   75 1
  79   41   76 1
  80   42   77 1
  81   42   78 1
  82   43   79 1
  83   43   80 1
  84   43   81 1
  85   44   45 ar
  86   44   82 1
  87   45   46 ar
  88   45   83 1
  89   46   47 ar
  90   46   84 1
  91   47   85 1

#	End of record

