#	Name: ASD05430601
#	Creating user name:	WinNT
#	Creation time:	15. 06. 2019 21:00

#	Modifying user name:	WinNT
#	Modification time:	15. 06. 2019 21:00

#	Program:	/corina/corina34_cracker 3.40 0067  02.08.2006

@<TRIPOS>MOLECULE
ASD05430601
  39   41    0    0    0
SMALL
NO_CHARGES


@<TRIPOS>ATOM
   1 C1            -0.0167     1.3784     0.0096 C.ar    
   2 C2             0.0021    -0.0041     0.0020 C.ar    
   3 C3             1.1751     2.0837     0.0020 C.ar    
   4 C4             2.3860     1.3879    -0.0414 C.ar    
   5 C5             2.4001     0.0088    -0.0334 C.ar    
   6 C6             1.2038    -0.6881    -0.0115 C.ar    
   7 C7             1.2115    -2.1951    -0.0035 C.3     
   8 C8             1.9542    -2.6947     1.2374 C.3     
   9 C9            -0.2282    -2.7123     0.0211 C.3     
  10 C10            1.9164    -2.7082    -1.2607 C.3     
  11 N11            1.1925     3.4805     0.0778 N.pl3   
  12 C12            1.8689     4.2026     1.0208 C.2     
  13 C13            0.5865     4.3673    -0.7473 C.2     
  14 N14            0.8965     5.5749    -0.3531 N.2     
  15 C15            1.6854     5.5004     0.7318 C.2     
  16 O16            3.5435     2.1152    -0.1385 O.3     
  17 C17            4.3555     2.1847     1.0330 C.3     
  18 C18            4.1168     3.4894     1.7993 C.3     
  19 C19            2.6440     3.6212     2.1781 C.3     
  20 H20           -0.9585     1.9070     0.0169 H       
  21 H21           -0.9278    -0.5533     0.0071 H       
  22 H22            3.3391    -0.5246    -0.0442 H       
  23 H23            1.4520    -2.3291     2.1331 H       
  24 H24            1.9597    -3.7846     1.2432 H       
  25 H25            2.9798    -2.3262     1.2199 H       
  26 H26           -0.7573    -2.3564    -0.8629 H       
  27 H27           -0.2226    -3.8023     0.0269 H       
  28 H28           -0.7304    -2.3467     0.9168 H       
  29 H29            2.9421    -2.3397    -1.2782 H       
  30 H30            1.9220    -3.7982    -1.2549 H       
  31 H31            1.3873    -2.3523    -2.1448 H       
  32 H32           -0.0450     4.1193    -1.5876 H       
  33 H33            2.0988     6.3371     1.2754 H       
  34 H34            4.1190     1.3414     1.6817 H       
  35 H35            5.4049     2.1277     0.7437 H       
  36 H36            4.7236     3.4920     2.7047 H       
  37 H37            4.4049     4.3335     1.1728 H       
  38 H38            2.5497     4.2773     3.0435 H       
  39 H39            2.2437     2.6378     2.4248 H       
@<TRIPOS>BOND
   1    1    2 ar
   2    1    3 ar
   3    1   20 1
   4    2    6 ar
   5    2   21 1
   6    3    4 ar
   7    3   11 1
   8    4    5 ar
   9    4   16 1
  10    5    6 ar
  11    5   22 1
  12    6    7 1
  13    7    8 1
  14    7    9 1
  15    7   10 1
  16    8   23 1
  17    8   24 1
  18    8   25 1
  19    9   26 1
  20    9   27 1
  21    9   28 1
  22   10   29 1
  23   10   30 1
  24   10   31 1
  25   11   12 1
  26   11   13 1
  27   12   19 1
  28   12   15 2
  29   13   14 2
  30   13   32 1
  31   14   15 1
  32   15   33 1
  33   16   17 1
  34   17   18 1
  35   17   34 1
  36   17   35 1
  37   18   19 1
  38   18   36 1
  39   18   37 1
  40   19   38 1
  41   19   39 1

#	End of record

