#	Name: ASD06660172
#	Creating user name:	WinNT
#	Creation time:	15. 06. 2019 21:08

#	Modifying user name:	WinNT
#	Modification time:	15. 06. 2019 21:08

#	Program:	/corina/corina34_cracker 3.40 0067  02.08.2006

@<TRIPOS>MOLECULE
ASD06660172
  72   75    0    0    0
SMALL
NO_CHARGES


@<TRIPOS>ATOM
   1 C1            -2.0470     1.5790    -1.1719 C.2     
   2 C2            -2.0842     0.0964    -0.9046 C.3     
   3 C3            -0.7241    -0.5171    -1.2431 C.3     
   4 O4            -2.2523     2.3603    -0.2734 O.2     
   5 O5            -1.7803     2.0318    -2.4071 O.3     
   6 N6            -0.4917    -4.7084    -1.9401 N.am    
   7 C7            -1.8469    -4.1427    -1.8922 C.3     
   8 C8            -1.7560    -2.6271    -2.0954 C.3     
   9 C9            -0.7910    -2.0353    -1.0655 C.3     
  10 C10            0.6029    -2.6341    -1.2668 C.3     
  11 C11            0.5387    -4.1499    -1.0542 C.3     
  12 C12           -0.2009    -5.7242    -2.7769 C.2     
  13 O13           -1.0616    -6.1799    -3.4996 O.2     
  14 C14            1.1939    -6.2937    -2.8144 C.3     
  15 N15            0.4094    -8.4182    -3.7324 N.ar    
  16 C16            1.2537    -7.4100    -3.8250 C.ar    
  17 C17            2.1918    -7.3643    -4.8370 C.ar    
  18 C18            2.2385    -8.3948    -5.7650 C.ar    
  19 C19            1.3376    -9.4405    -5.6424 C.ar    
  20 C20            1.3747   -10.5613    -6.6455 C.3     
  21 C21            0.6929   -11.8072    -6.0792 C.3     
  22 C22           -0.6890   -11.4131    -5.5415 C.3     
  23 N23           -0.4899   -10.4642    -4.4382 N.pl3   
  24 C24            0.4234    -9.4240    -4.5982 C.ar    
  25 N25           -2.3869    -0.1373     0.5096 N.am    
  26 C26           -3.6673    -0.1603     0.9298 C.2     
  27 O27           -4.5689     0.0126     0.1372 O.2     
  28 C28           -3.9788    -0.4007     2.3845 C.3     
  29 C29           -5.4944    -0.3776     2.5922 C.3     
  30 C30           -6.1422    -1.4739     1.7440 C.3     
  31 C31           -5.5905    -2.8374     2.1651 C.3     
  32 C32           -4.0748    -2.8606     1.9574 C.3     
  33 C33           -3.4271    -1.7643     2.8056 C.3     
  34 C34           -3.3310     0.6956     3.2327 C.3     
  35 H35           -2.8548    -0.3649    -1.5222 H       
  36 H36           -0.4670    -0.2832    -2.2762 H       
  37 H37            0.0354    -0.1066    -0.5778 H       
  38 H38           -1.7674     2.9909    -2.5299 H       
  39 H39           -2.4543    -4.5818    -2.6837 H       
  40 H40           -2.2974    -4.3550    -0.9226 H       
  41 H41           -1.3899    -2.4161    -3.1002 H       
  42 H42           -2.7430    -2.1829    -1.9666 H       
  43 H43           -1.1444    -2.2682    -0.0610 H       
  44 H44            0.9467    -2.4230    -2.2794 H       
  45 H45            1.2948    -2.1949    -0.5482 H       
  46 H46            0.2828    -4.3627    -0.0163 H       
  47 H47            1.5053    -4.5936    -1.2927 H       
  48 H48            1.8985    -5.5109    -3.0955 H       
  49 H49            1.4549    -6.6808    -1.8295 H       
  50 H50            2.8812    -6.5358    -4.9058 H       
  51 H51            2.9620    -8.3820    -6.5668 H       
  52 H52            0.8589   -10.2495    -7.5537 H       
  53 H53            2.4117   -10.7958    -6.8858 H       
  54 H54            0.5796   -12.5517    -6.8672 H       
  55 H55            1.2963   -12.2179    -5.2697 H       
  56 H56           -1.2719   -10.9417    -6.3328 H       
  57 H57           -1.2092   -12.2988    -5.1769 H       
  58 H58           -0.9866   -10.5603    -3.6106 H       
  59 H59           -1.6659    -0.2756     1.1436 H       
  60 H60           -5.7197    -0.5515     3.6444 H       
  61 H61           -5.8875     0.5938     2.2922 H       
  62 H62           -7.2220    -1.4574     1.8919 H       
  63 H63           -5.9169    -1.3000     0.6918 H       
  64 H64           -5.8158    -3.0113     3.2173 H       
  65 H65           -6.0520    -3.6184     1.5608 H       
  66 H66           -3.6818    -3.8320     2.2574 H       
  67 H67           -3.8496    -2.6866     0.9052 H       
  68 H68           -2.3473    -1.7807     2.6577 H       
  69 H69           -3.6523    -1.9382     3.8578 H       
  70 H70           -3.7240     1.6670     2.9328 H       
  71 H71           -3.5563     0.5216     4.2849 H       
  72 H72           -2.2512     0.6791     3.0848 H       
@<TRIPOS>BOND
   1    1    2 1
   2    1    4 2
   3    1    5 1
   4    2    3 1
   5    2   25 1
   6    2   35 1
   7    3    9 1
   8    3   36 1
   9    3   37 1
  10    5   38 1
  11    6    7 1
  12    6   11 1
  13    6   12 am
  14    7    8 1
  15    7   39 1
  16    7   40 1
  17    8    9 1
  18    8   41 1
  19    8   42 1
  20    9   10 1
  21    9   43 1
  22   10   11 1
  23   10   44 1
  24   10   45 1
  25   11   46 1
  26   11   47 1
  27   12   13 2
  28   12   14 1
  29   14   16 1
  30   14   48 1
  31   14   49 1
  32   15   16 ar
  33   15   24 ar
  34   16   17 ar
  35   17   18 ar
  36   17   50 1
  37   18   19 ar
  38   18   51 1
  39   19   20 1
  40   19   24 ar
  41   20   21 1
  42   20   52 1
  43   20   53 1
  44   21   22 1
  45   21   54 1
  46   21   55 1
  47   22   23 1
  48   22   56 1
  49   22   57 1
  50   23   24 1
  51   23   58 1
  52   25   26 am
  53   25   59 1
  54   26   27 2
  55   26   28 1
  56   28   29 1
  57   28   33 1
  58   28   34 1
  59   29   30 1
  60   29   60 1
  61   29   61 1
  62   30   31 1
  63   30   62 1
  64   30   63 1
  65   31   32 1
  66   31   64 1
  67   31   65 1
  68   32   33 1
  69   32   66 1
  70   32   67 1
  71   33   68 1
  72   33   69 1
  73   34   70 1
  74   34   71 1
  75   34   72 1

#	End of record

