#	Name: ASD01917361
#	Creating user name:	WinNT
#	Creation time:	15. 06. 2019 20:09

#	Modifying user name:	WinNT
#	Modification time:	15. 06. 2019 20:09

#	Program:	/corina/corina34_cracker 3.40 0067  02.08.2006

@<TRIPOS>MOLECULE
ASD01917361
  48   51    0    0    0
SMALL
NO_CHARGES


@<TRIPOS>ATOM
   1 C1            -0.0186     1.5351     0.0103 C.3     
   2 C2            -0.0014    -0.0035     0.0087 C.3     
   3 C3             1.0306    -0.4916     1.0272 C.3     
   4 C4             0.7302     0.0904     2.4098 C.3     
   5 C5             0.6815     1.6250     2.3081 C.3     
   6 C6             1.8996     2.0720     1.4673 C.3     
   7 C7             1.4513     2.0145    -0.0042 C.3     
   8 C8            -0.5327     1.9734     1.4071 C.3     
   9 C9            -0.8261     2.1050    -1.1273 C.2     
  10 O10           -0.2998     2.8395    -1.9362 O.2     
  11 N11           -2.1332     1.7984    -1.2458 N.am    
  12 C12           -2.9056     2.4088    -2.2328 C.ar    
  13 C13           -4.2271     2.0159    -2.4274 C.ar    
  14 N14           -2.3853     3.3689    -2.9852 N.ar    
  15 N15           -4.9551     2.5965    -3.3624 N.ar    
  16 C16           -4.4308     3.5501    -4.1138 C.ar    
  17 C17           -3.1208     3.9459    -3.9200 C.ar    
  18 C18            1.6266     2.0711     4.5092 C.2     
  19 C19            1.5782     2.7257     5.8340 C.ar    
  20 C20            2.6051     2.5180     6.7563 C.ar    
  21 C21            2.5536     3.1323     7.9916 C.ar    
  22 C22            1.4857     3.9524     8.3159 C.ar    
  23 C23            0.4655     4.1616     7.4057 C.ar    
  24 C24            0.5084     3.5583     6.1655 C.ar    
  25 O25            2.5621     1.3504     4.2213 O.2     
  26 N26            0.6335     2.2736     3.6208 N.am    
  27 Cl27           3.8294     2.8759     9.1406 Cl      
  28 H28           -0.9878    -0.3795     0.2802 H       
  29 H29            0.2673    -0.3642    -0.9842 H       
  30 H30            0.9991    -1.5799     1.0794 H       
  31 H31            2.0254    -0.1770     0.7118 H       
  32 H32           -0.2319    -0.2825     2.7613 H       
  33 H33            1.5140    -0.2042     3.1077 H       
  34 H34            2.1846     3.0901     1.7326 H       
  35 H35            2.7369     1.3935     1.6306 H       
  36 H36            2.0703     1.3080    -0.5571 H       
  37 H37            1.5180     3.0046    -0.4551 H       
  38 H38           -0.7414     3.0430     1.4289 H       
  39 H39           -1.4125     1.3992     1.6977 H       
  40 H40           -2.5364     1.1530    -0.6444 H       
  41 H41           -4.6555     1.2370    -1.8141 H       
  42 H42           -5.0290     4.0234    -4.8784 H       
  43 H43           -2.6976     4.7281    -4.5327 H       
  44 H44            3.4378     1.8781     6.5043 H       
  45 H45            1.4493     4.4303     9.2837 H       
  46 H46           -0.3647     4.8020     7.6649 H       
  47 H47           -0.2869     3.7264     5.4543 H       
  48 H48           -0.1130     2.8488     3.8506 H       
@<TRIPOS>BOND
   1    1    2 1
   2    1    7 1
   3    1    8 1
   4    1    9 1
   5    2    3 1
   6    2   28 1
   7    2   29 1
   8    3    4 1
   9    3   30 1
  10    3   31 1
  11    4    5 1
  12    4   32 1
  13    4   33 1
  14    5    6 1
  15    5    8 1
  16    5   26 1
  17    6    7 1
  18    6   34 1
  19    6   35 1
  20    7   36 1
  21    7   37 1
  22    8   38 1
  23    8   39 1
  24    9   10 2
  25    9   11 am
  26   11   12 1
  27   11   40 1
  28   12   13 ar
  29   12   14 ar
  30   13   15 ar
  31   13   41 1
  32   14   17 ar
  33   15   16 ar
  34   16   17 ar
  35   16   42 1
  36   17   43 1
  37   18   19 1
  38   18   25 2
  39   18   26 am
  40   19   20 ar
  41   19   24 ar
  42   20   21 ar
  43   20   44 1
  44   21   22 ar
  45   21   27 1
  46   22   23 ar
  47   22   45 1
  48   23   24 ar
  49   23   46 1
  50   24   47 1
  51   26   48 1

#	End of record

