#	Name: ASD01411154
#	Creating user name:	WinNT
#	Creation time:	15. 06. 2019 19:19

#	Modifying user name:	WinNT
#	Modification time:	15. 06. 2019 19:19

#	Program:	/corina/corina34_cracker 3.40 0067  02.08.2006

@<TRIPOS>MOLECULE
ASD01411154
  56   58    0    0    0
SMALL
NO_CHARGES


@<TRIPOS>ATOM
   1 C1            -0.4774     0.4841     1.5055 C.ar    
   2 C2             0.6497     0.7718     2.2431 C.ar    
   3 C3             1.8989     0.3050     1.8226 C.ar    
   4 C4             1.9956    -0.4558     0.6489 C.ar    
   5 C5             0.8454    -0.7382    -0.0854 C.ar    
   6 C6            -0.3828    -0.2678     0.3453 C.ar    
   7 C7             3.1074     0.6115     2.6085 C.2     
   8 O8             0.9300    -1.4750    -1.2251 O.3     
   9 C9            -0.3000    -1.8402    -1.8543 C.3     
  10 C10           -0.0184    -2.7707    -3.0058 C.ar    
  11 C11            0.3079    -2.2556    -4.2464 C.ar    
  12 C12           -0.0809    -4.1391    -2.8196 C.ar    
  13 C13            0.1773    -4.9930    -3.8753 C.ar    
  14 C14            0.4984    -4.4779    -5.1186 C.ar    
  15 C15            0.5663    -3.1084    -5.3029 C.ar    
  16 Cl16           0.8227    -5.5498    -6.4451 Cl      
  17 O17            3.0273     1.4303     3.6758 O.3     
  18 O18            4.1760     0.1258     2.2941 O.2     
  19 N19            3.2346    -0.9264     0.2190 N.am    
  20 C20            3.4105    -2.2413    -0.0187 C.2     
  21 O21            2.5191    -3.0292     0.2327 O.2     
  22 C22            4.6843    -2.7247    -0.5839 C.ar    
  23 C23            4.8177    -4.0633    -0.9784 C.ar    
  24 C24            6.0198    -4.5068    -1.5084 C.ar    
  25 C25            7.0801    -3.6327    -1.6460 C.ar    
  26 C26            6.9524    -2.3094    -1.2574 C.ar    
  27 C27            5.7628    -1.8499    -0.7344 C.ar    
  28 O28            3.7756    -4.9210    -0.8419 O.3     
  29 C29            4.0189    -6.2932    -1.1582 C.3     
  30 C30            2.7036    -7.0722    -1.0947 C.3     
  31 C31            2.9829    -8.5622    -1.3018 C.3     
  32 C32            1.6833    -9.3247    -1.2795 C.2     
  33 O33            1.6779   -10.6485    -1.5014 O.3     
  34 O34            0.6460    -8.7444    -1.0618 O.2     
  35 H35           -1.4411     0.8429     1.8356 H       
  36 H36            0.5686     1.3584     3.1463 H       
  37 H37           -1.2726    -0.4882    -0.2257 H       
  38 H38           -0.9433    -2.3415    -1.1310 H       
  39 H39           -0.7987    -0.9445    -2.2245 H       
  40 H40            0.3605    -1.1865    -4.3903 H       
  41 H41           -0.3312    -4.5410    -1.8489 H       
  42 H42            0.1288    -6.0620    -3.7296 H       
  43 H43            0.8208    -2.7059    -6.2722 H       
  44 H44            3.8466     1.6017     4.1601 H       
  45 H45            3.9705    -0.3077     0.0907 H       
  46 H46            6.1272    -5.5371    -1.8137 H       
  47 H47            8.0146    -3.9831    -2.0587 H       
  48 H48            7.7874    -1.6335    -1.3685 H       
  49 H49            5.6662    -0.8161    -0.4372 H       
  50 H50            4.4363    -6.3660    -2.1625 H       
  51 H51            4.7242    -6.7119    -0.4403 H       
  52 H52            2.2389    -6.9217    -0.1203 H       
  53 H53            2.0325    -6.7162    -1.8763 H       
  54 H54            3.4741    -8.7095    -2.2637 H       
  55 H55            3.6307    -8.9248    -0.5037 H       
  56 H56            0.8201   -11.0943    -1.4770 H       
@<TRIPOS>BOND
   1    1    2 ar
   2    1    6 ar
   3    1   35 1
   4    2    3 ar
   5    2   36 1
   6    3    4 ar
   7    3    7 1
   8    4    5 ar
   9    4   19 1
  10    5    6 ar
  11    5    8 1
  12    6   37 1
  13    7   17 1
  14    7   18 2
  15    8    9 1
  16    9   10 1
  17    9   38 1
  18    9   39 1
  19   10   12 ar
  20   10   11 ar
  21   11   15 ar
  22   11   40 1
  23   12   13 ar
  24   12   41 1
  25   13   14 ar
  26   13   42 1
  27   14   15 ar
  28   14   16 1
  29   15   43 1
  30   17   44 1
  31   19   20 am
  32   19   45 1
  33   20   21 2
  34   20   22 1
  35   22   23 ar
  36   22   27 ar
  37   23   24 ar
  38   23   28 1
  39   24   25 ar
  40   24   46 1
  41   25   26 ar
  42   25   47 1
  43   26   27 ar
  44   26   48 1
  45   27   49 1
  46   28   29 1
  47   29   30 1
  48   29   50 1
  49   29   51 1
  50   30   31 1
  51   30   52 1
  52   30   53 1
  53   31   32 1
  54   31   54 1
  55   31   55 1
  56   32   33 1
  57   32   34 2
  58   33   56 1

#	End of record

