#	Name: ASD02198547
#	Creating user name:	WinNT
#	Creation time:	15. 06. 2019 20:19

#	Modifying user name:	WinNT
#	Modification time:	15. 06. 2019 20:19

#	Program:	/corina/corina34_cracker 3.40 0067  02.08.2006

@<TRIPOS>MOLECULE
ASD02198547
  45   48    0    0    0
SMALL
NO_CHARGES


@<TRIPOS>ATOM
   1 C1            -0.0158     1.3531    -0.0406 C.2     
   2 C2             0.0026    -0.0038    -0.0456 C.2     
   3 N3             1.1718    -0.6818    -0.0128 N.pl3   
   4 N4             2.3176    -0.1084     0.0250 N.2     
   5 C5             2.4435     1.2024     0.0343 C.2     
   6 C6             1.2260     2.0308     0.0001 C.2     
   7 C7             1.1289    -2.0798    -0.0199 C.ar    
   8 C8            -0.1273    -4.1199     0.0856 C.ar    
   9 C9             1.0442    -4.8455    -0.0340 C.ar    
  10 C10            2.2581    -4.1921    -0.1408 C.ar    
  11 C11            2.3040    -2.8117    -0.1341 C.ar    
  12 C12            3.7768     1.8285     0.0785 C.2     
  13 C13            4.4835     2.1721     1.2204 C.2     
  14 C14            5.7050     2.7407     0.7898 C.2     
  15 C15            5.7099     2.7288    -0.5577 C.2     
  16 N16            4.5476     2.1721    -1.0024 N.pl3   
  17 C17            4.0436     1.9813     2.6223 C.ar    
  18 C18            2.7782     2.4090     3.0233 C.ar    
  19 O19            1.2856     3.2511     0.0066 O.2     
  20 C20            4.8910     1.3681     3.5446 C.ar    
  21 C21            4.4755     1.1928     4.8487 C.ar    
  22 C22            3.2211     1.6239     5.2418 C.ar    
  23 C23            2.3740     2.2282     4.3301 C.ar    
  24 C24           -0.0886    -2.7397     0.0930 C.ar    
  25 F25           -1.2335    -6.2184     0.1654 F       
  26 F26           -2.0604    -4.4916     1.4118 F       
  27 C27           -1.4479    -4.8364     0.2022 C.3     
  28 F28           -2.2759    -4.4645    -0.8624 F       
  29 C29            4.1779     1.9808    -2.4071 C.3     
  30 H30           -0.9477     1.8982    -0.0711 H       
  31 H31           -0.9291    -0.5493    -0.0760 H       
  32 H32            1.0107    -5.9250    -0.0437 H       
  33 H33            3.1710    -4.7617    -0.2334 H       
  34 H34            3.2524    -2.3019    -0.2179 H       
  35 H35            6.4920     3.1171     1.4265 H       
  36 H36            6.5085     3.0969    -1.1847 H       
  37 H37            2.1162     2.8812     2.3125 H       
  38 H38            5.8703     1.0308     3.2387 H       
  39 H39            5.1307     0.7177     5.5638 H       
  40 H40            2.9002     1.4842     6.2635 H       
  41 H41            1.3961     2.5630     4.6430 H       
  42 H42           -1.0036    -2.1737     0.1868 H       
  43 H43            4.5272     1.0053    -2.7451 H       
  44 H44            3.0938     2.0335    -2.5079 H       
  45 H45            4.6375     2.7614    -3.0133 H       
@<TRIPOS>BOND
   1    1    2 2
   2    1    6 1
   3    1   30 1
   4    2    3 1
   5    2   31 1
   6    3    4 1
   7    3    7 1
   8    4    5 2
   9    5    6 1
  10    5   12 1
  11    6   19 2
  12    7   24 ar
  13    7   11 ar
  14    8    9 ar
  15    8   27 1
  16    8   24 ar
  17    9   10 ar
  18    9   32 1
  19   10   11 ar
  20   10   33 1
  21   11   34 1
  22   12   13 2
  23   12   16 1
  24   13   14 1
  25   13   17 1
  26   14   15 2
  27   14   35 1
  28   15   16 1
  29   15   36 1
  30   16   29 1
  31   17   20 ar
  32   17   18 ar
  33   18   23 ar
  34   18   37 1
  35   20   21 ar
  36   20   38 1
  37   21   22 ar
  38   21   39 1
  39   22   23 ar
  40   22   40 1
  41   23   41 1
  42   24   42 1
  43   25   27 1
  44   26   27 1
  45   27   28 1
  46   29   43 1
  47   29   44 1
  48   29   45 1

#	End of record

