#	Name: ASD01880441
#	Creating user name:	WinNT
#	Creation time:	15. 06. 2019 19:40

#	Modifying user name:	WinNT
#	Modification time:	15. 06. 2019 19:40

#	Program:	/corina/corina34_cracker 3.40 0067  02.08.2006

@<TRIPOS>MOLECULE
ASD01880441
  46   50    0    0    0
SMALL
NO_CHARGES


@<TRIPOS>ATOM
   1 C1            -0.0169     1.3927     0.0097 C.ar    
   2 C2             0.0021    -0.0041     0.0020 C.ar    
   3 C3             1.2135    -0.6907    -0.0128 C.ar    
   4 C4             2.4022     0.0193    -0.0203 C.ar    
   5 C5             2.3727     1.4246    -0.0130 C.ar    
   6 C6             1.1522     2.0999     0.0023 C.ar    
   7 N7             3.6286    -0.6376    -0.0346 N.pl3   
   8 C8             4.7929     0.0687    -0.0416 C.2     
   9 N9             4.8015     1.4561    -0.0353 N.am    
  10 C10            3.6502     2.1585    -0.0210 C.2     
  11 N11            3.9493    -2.0026    -0.0437 N.2     
  12 C12            5.2606    -2.1201    -0.0558 C.2     
  13 C13            5.8179    -0.8302    -0.0548 C.2     
  14 C14            6.0812     2.1693    -0.0429 C.3     
  15 O15            3.6662     3.3751    -0.0158 O.2     
  16 C16           -1.2742    -0.7594     0.0101 C.ar    
  17 C17            6.0195    -3.3954    -0.0676 C.ar    
  18 C18            5.3414    -4.6124    -0.0670 C.ar    
  19 C19            6.0523    -5.7956    -0.0780 C.ar    
  20 C20            7.4351    -5.7744    -0.0896 C.ar    
  21 C21            8.1135    -4.5687    -0.0899 C.ar    
  22 C22            7.4128    -3.3798    -0.0852 C.ar    
  23 C23            5.3203    -7.1129    -0.0768 C.3     
  24 C24           -2.4985    -0.0851     0.0255 C.ar    
  25 C25           -3.6615    -0.8361     0.0326 C.ar    
  26 C26           -3.5757    -2.2162     0.0244 C.ar    
  27 N27           -2.4053    -2.8250     0.0099 N.ar    
  28 C28           -1.2725    -2.1532    -0.0031 C.ar    
  29 H29           -0.9612     1.9167     0.0170 H       
  30 H30            1.2257    -1.7707    -0.0180 H       
  31 H31            1.1314     3.1797     0.0076 H       
  32 H32            6.8715    -0.5928    -0.0627 H       
  33 H33            6.3898     2.3509    -1.0724 H       
  34 H34            5.9697     3.1212     0.4763 H       
  35 H35            6.8361     1.5664     0.4617 H       
  36 H36            4.2616    -4.6301    -0.0575 H       
  37 H37            7.9874    -6.7025    -0.0982 H       
  38 H38            9.1934    -4.5579    -0.0983 H       
  39 H39            7.9434    -2.4392    -0.0857 H       
  40 H40            5.1348    -7.4264    -1.1041 H       
  41 H41            5.9263    -7.8648     0.4288 H       
  42 H42            4.3705    -7.0003     0.4459 H       
  43 H43           -2.5362     0.9942     0.0319 H       
  44 H44           -4.6255    -0.3493     0.0448 H       
  45 H45           -4.4810    -2.8051     0.0303 H       
  46 H46           -0.3338    -2.6871    -0.0148 H       
@<TRIPOS>BOND
   1    1    2 ar
   2    1    6 ar
   3    1   29 1
   4    2    3 ar
   5    2   16 1
   6    3    4 ar
   7    3   30 1
   8    4    5 ar
   9    4    7 1
  10    5    6 ar
  11    5   10 1
  12    6   31 1
  13    7    8 1
  14    7   11 1
  15    8    9 1
  16    8   13 2
  17    9   10 am
  18    9   14 1
  19   10   15 2
  20   11   12 2
  21   12   13 1
  22   12   17 1
  23   13   32 1
  24   14   33 1
  25   14   34 1
  26   14   35 1
  27   16   24 ar
  28   16   28 ar
  29   17   18 ar
  30   17   22 ar
  31   18   19 ar
  32   18   36 1
  33   19   20 ar
  34   19   23 1
  35   20   21 ar
  36   20   37 1
  37   21   22 ar
  38   21   38 1
  39   22   39 1
  40   23   40 1
  41   23   41 1
  42   23   42 1
  43   24   25 ar
  44   24   43 1
  45   25   26 ar
  46   25   44 1
  47   26   27 ar
  48   26   45 1
  49   27   28 ar
  50   28   46 1

#	End of record

