#	Name: ASD04660041
#	Creating user name:	WinNT
#	Creation time:	15. 06. 2019 20:52

#	Modifying user name:	WinNT
#	Modification time:	15. 06. 2019 20:52

#	Program:	/corina/corina34_cracker 3.40 0067  02.08.2006

@<TRIPOS>MOLECULE
ASD04660041
  48   51    0    0    0
SMALL
NO_CHARGES


@<TRIPOS>ATOM
   1 O1            -0.0143     1.2049     0.0087 O.3     
   2 N2             0.0021    -0.0041     0.0020 N.2     
   3 C3             1.2248    -0.4660    -0.0121 C.2     
   4 C4             2.0777     0.6696    -0.0142 C.2     
   5 C5             1.2242     1.7186    -0.0004 C.2     
   6 C6             1.5931     3.1798     0.0039 C.3     
   7 N7             1.6139    -1.8056    -0.0226 N.am    
   8 C8             2.9227    -2.1272    -0.0364 C.2     
   9 O9             3.7621    -1.2519    -0.0397 O.2     
  10 C10            3.3430    -3.5743    -0.0478 C.3     
  11 N11            4.8056    -3.6580    -0.0617 N.pl3   
  12 C12            5.5744    -3.7941    -1.1854 C.2     
  13 C13            6.8730    -3.8395    -0.8485 C.2     
  14 C14            6.9414    -3.7230     0.6101 C.ar    
  15 C15            5.6115    -3.6054     1.0533 C.ar    
  16 C16            7.9878    -3.7064     1.5344 C.ar    
  17 C17            7.7137    -3.5816     2.8671 C.ar    
  18 C18            6.4026    -3.4716     3.3101 C.ar    
  19 C19            5.3556    -3.4776     2.4149 C.ar    
  20 S20            8.2367    -4.0083    -1.9515 S.o2    
  21 O21            8.9931    -5.0833    -1.4116 O.2     
  22 O22            7.6380    -4.1066    -3.2365 O.2     
  23 C23            9.1453    -2.4466    -1.7904 C.3     
  24 C24           10.3490    -2.4699    -2.6967 C.ar    
  25 C25           10.2455    -2.0081    -3.9951 C.ar    
  26 C26           11.3498    -2.0295    -4.8268 C.ar    
  27 C27           12.5578    -2.5130    -4.3604 C.ar    
  28 C28           12.6624    -2.9756    -3.0619 C.ar    
  29 C29           11.5595    -2.9484    -2.2273 C.ar    
  30 Cl30          11.6903    -3.5286    -0.5964 Cl      
  31 H31            3.1575     0.6906    -0.0244 H       
  32 H32            1.6723     3.5375    -1.0226 H       
  33 H33            0.8241     3.7471     0.5282 H       
  34 H34            2.5499     3.3114     0.5094 H       
  35 H35            0.9425    -2.5057    -0.0200 H       
  36 H36            2.9592    -4.0711     0.8433 H       
  37 H37            2.9427    -4.0620    -0.9366 H       
  38 H38            5.1930    -3.8558    -2.1939 H       
  39 H39            9.0102    -3.7922     1.1972 H       
  40 H40            8.5235    -3.5688     3.5816 H       
  41 H41            6.2018    -3.3739     4.3668 H       
  42 H42            4.3392    -3.3911     2.7694 H       
  43 H43            8.4954    -1.6176    -2.0706 H       
  44 H44            9.4704    -2.3203    -0.7577 H       
  45 H45            9.3018    -1.6308    -4.3603 H       
  46 H46           11.2685    -1.6685    -5.8414 H       
  47 H47           13.4199    -2.5298    -5.0106 H       
  48 H48           13.6061    -3.3541    -2.6978 H       
@<TRIPOS>BOND
   1    1    2 1
   2    1    5 1
   3    2    3 2
   4    3    4 1
   5    3    7 1
   6    4    5 2
   7    4   31 1
   8    5    6 1
   9    6   32 1
  10    6   33 1
  11    6   34 1
  12    7    8 am
  13    7   35 1
  14    8    9 2
  15    8   10 1
  16   10   11 1
  17   10   36 1
  18   10   37 1
  19   11   12 1
  20   11   15 1
  21   12   13 2
  22   12   38 1
  23   13   14 1
  24   13   20 1
  25   14   15 ar
  26   14   16 ar
  27   15   19 ar
  28   16   17 ar
  29   16   39 1
  30   17   18 ar
  31   17   40 1
  32   18   19 ar
  33   18   41 1
  34   19   42 1
  35   20   21 2
  36   20   22 2
  37   20   23 1
  38   23   24 1
  39   23   43 1
  40   23   44 1
  41   24   25 ar
  42   24   29 ar
  43   25   26 ar
  44   25   45 1
  45   26   27 ar
  46   26   46 1
  47   27   28 ar
  48   27   47 1
  49   28   29 ar
  50   28   48 1
  51   29   30 1

#	End of record

