#	Name: ASD01912390
#	Creating user name:	WinNT
#	Creation time:	15. 06. 2019 19:59

#	Modifying user name:	WinNT
#	Modification time:	15. 06. 2019 19:59

#	Program:	/corina/corina34_cracker 3.40 0067  02.08.2006

@<TRIPOS>MOLECULE
ASD01912390
  40   42    0    0    0
SMALL
NO_CHARGES


@<TRIPOS>ATOM
   1 C1            -0.0159     1.3206     0.0093 C.ar    
   2 N2             0.0021    -0.0041     0.0020 N.ar    
   3 C3             1.1479    -0.6649    -0.0125 C.ar    
   4 C4             2.3385     0.0461    -0.0200 C.ar    
   5 C5             2.2828     1.4318    -0.0120 C.ar    
   6 N6             1.1031     2.0299     0.0024 N.ar    
   7 N7            -1.2334     1.9797     0.0186 N.3     
   8 C8            -1.0436     3.4356     0.0256 C.3     
   9 C9            -2.3920     4.1261    -0.2093 C.3     
  10 C10           -3.3781     3.6004     0.8127 C.2     
  11 C11           -3.4798     2.0997     0.9885 C.3     
  12 C12           -2.0622     1.5380     1.1472 C.3     
  13 C13           -4.1309     4.4304     1.5334 C.2     
  14 C14           -5.0558     3.9074     2.4934 C.1     
  15 C15           -5.8141     3.4786     3.2804 C.1     
  16 C16           -6.7390     2.9556     4.2404 C.ar    
  17 C17           -7.5265     3.8309     4.9940 C.ar    
  18 C18           -8.4146     3.3094     5.9166 C.ar    
  19 C19           -8.4898     1.9301     6.0592 C.ar    
  20 C20           -7.6817     1.1211     5.2814 C.ar    
  21 N21           -6.8468     1.6403     4.4049 N.ar    
  22 C22           -7.7618    -0.3759     5.4346 C.3     
  23 Br23           4.0014    -0.8540    -0.0400 Br      
  24 H24            1.1561    -1.7448    -0.0180 H       
  25 H25            3.1916     2.0154    -0.0175 H       
  26 H26           -0.6398     3.7449     0.9897 H       
  27 H27           -0.3490     3.7155    -0.7664 H       
  28 H28           -2.2788     5.2036    -0.0905 H       
  29 H29           -2.7496     3.9020    -1.2143 H       
  30 H30           -4.0669     1.8727     1.8784 H       
  31 H31           -3.9541     1.6582     0.1120 H       
  32 H32           -2.1025     0.4489     1.1644 H       
  33 H33           -1.6298     1.9008     2.0797 H       
  34 H34           -4.0435     5.4978     1.3936 H       
  35 H35           -7.4422     4.8990     4.8578 H       
  36 H36           -9.0359     3.9606     6.5136 H       
  37 H37           -9.1736     1.4928     6.7718 H       
  38 H38           -8.5112    -0.7717     4.7491 H       
  39 H39           -6.7915    -0.8170     5.2063 H       
  40 H40           -8.0406    -0.6219     6.4592 H       
@<TRIPOS>BOND
   1    1    2 ar
   2    1    6 ar
   3    1    7 1
   4    2    3 ar
   5    3    4 ar
   6    3   24 1
   7    4    5 ar
   8    4   23 1
   9    5    6 ar
  10    5   25 1
  11    7    8 1
  12    7   12 1
  13    8    9 1
  14    8   26 1
  15    8   27 1
  16    9   10 1
  17    9   28 1
  18    9   29 1
  19   10   11 1
  20   10   13 2
  21   11   12 1
  22   11   30 1
  23   11   31 1
  24   12   32 1
  25   12   33 1
  26   13   14 1
  27   13   34 1
  28   14   15 3
  29   15   16 1
  30   16   17 ar
  31   16   21 ar
  32   17   18 ar
  33   17   35 1
  34   18   19 ar
  35   18   36 1
  36   19   20 ar
  37   19   37 1
  38   20   21 ar
  39   20   22 1
  40   22   38 1
  41   22   39 1
  42   22   40 1

#	End of record

