#	Name: ASD01910161
#	Creating user name:	WinNT
#	Creation time:	15. 06. 2019 19:55

#	Modifying user name:	WinNT
#	Modification time:	15. 06. 2019 19:55

#	Program:	/corina/corina34_cracker 3.40 0067  02.08.2006

@<TRIPOS>MOLECULE
ASD01910161
  47   50    0    0    0
SMALL
NO_CHARGES


@<TRIPOS>ATOM
   1 C1             0.0547     1.2865     0.1410 C.ar    
   2 C2            -1.0390     1.6981    -0.6083 C.ar    
   3 C3            -0.9508     2.8413    -1.4044 C.ar    
   4 C4             0.2252     3.5639    -1.4464 C.ar    
   5 C5             1.3254     3.1488    -0.6909 C.ar    
   6 C6             1.2311     2.0031     0.1025 C.ar    
   7 C7             2.5842     3.9180    -0.7328 C.2     
   8 N8             3.6441     3.5162    -0.0037 N.am    
   9 C9             4.8653     4.1884    -0.1159 C.ar    
  10 C10            4.8867     5.5625    -0.3059 C.ar    
  11 C11            6.1007     6.2259    -0.4163 C.ar    
  12 C12            7.2901     5.5125    -0.3364 C.ar    
  13 C13            7.2653     4.1440    -0.1471 C.ar    
  14 C14            6.0587     3.4815    -0.0315 C.ar    
  15 N15            6.1267     7.6109    -0.6084 N.am    
  16 C16            7.0987     8.3519    -0.0403 C.2     
  17 C17            7.0690     9.8220    -0.1575 C.ar    
  18 C18            6.0356    10.4504    -0.8562 C.ar    
  19 C19            6.0135    11.8244    -0.9615 C.ar    
  20 C20            7.0119    12.5862    -0.3775 C.ar    
  21 C21            8.0398    11.9779     0.3158 C.ar    
  22 C22            8.0748    10.5970     0.4367 C.ar    
  23 O23            9.0837     9.9980     1.1177 O.3     
  24 C24           10.0789    10.8514     1.6863 C.3     
  25 O25            2.6651     4.9143    -1.4251 O.2     
  26 O26            8.0000     7.8085     0.5687 O.2     
  27 O27           -2.2901     1.1721    -0.7405 O.3     
  28 C28           -3.0946     2.2266    -1.3004 C.3     
  29 O29           -2.1486     3.0277    -2.0327 O.3     
  30 H30           -0.0181     0.4042     0.7595 H       
  31 H31            0.2948     4.4483    -2.0623 H       
  32 H32            2.0795     1.6801     0.6876 H       
  33 H33            3.5598     2.7608     0.5989 H       
  34 H34            3.9606     6.1148    -0.3681 H       
  35 H35            8.2352     6.0281    -0.4226 H       
  36 H36            8.1913     3.5917    -0.0852 H       
  37 H37            6.0427     2.4118     0.1167 H       
  38 H38            5.4451     8.0383    -1.1504 H       
  39 H39            5.2551     9.8603    -1.3135 H       
  40 H40            5.2142    12.3093    -1.5022 H       
  41 H41            6.9867    13.6624    -0.4650 H       
  42 H42            8.8151    12.5787     0.7678 H       
  43 H43           10.5604    11.4257     0.8947 H       
  44 H44            9.6106    11.5331     2.3962 H       
  45 H45           10.8250    10.2465     2.2015 H       
  46 H46           -3.8497     1.8169    -1.9713 H       
  47 H47           -3.5616     2.8131    -0.5093 H       
@<TRIPOS>BOND
   1    1    2 ar
   2    1    6 ar
   3    1   30 1
   4    2    3 ar
   5    2   27 1
   6    3    4 ar
   7    3   29 1
   8    4    5 ar
   9    4   31 1
  10    5    6 ar
  11    5    7 1
  12    6   32 1
  13    7    8 am
  14    7   25 2
  15    8    9 1
  16    8   33 1
  17    9   10 ar
  18    9   14 ar
  19   10   11 ar
  20   10   34 1
  21   11   12 ar
  22   11   15 1
  23   12   13 ar
  24   12   35 1
  25   13   14 ar
  26   13   36 1
  27   14   37 1
  28   15   16 am
  29   15   38 1
  30   16   17 1
  31   16   26 2
  32   17   18 ar
  33   17   22 ar
  34   18   19 ar
  35   18   39 1
  36   19   20 ar
  37   19   40 1
  38   20   21 ar
  39   20   41 1
  40   21   22 ar
  41   21   42 1
  42   22   23 1
  43   23   24 1
  44   24   43 1
  45   24   44 1
  46   24   45 1
  47   27   28 1
  48   28   29 1
  49   28   46 1
  50   28   47 1

#	End of record

