#	Name: ASD02030016
#	Creating user name:	WinNT
#	Creation time:	15. 06. 2019 20:14

#	Modifying user name:	WinNT
#	Modification time:	15. 06. 2019 20:14

#	Program:	/corina/corina34_cracker 3.40 0067  02.08.2006

@<TRIPOS>MOLECULE
ASD02030016
  62   64    0    0    0
SMALL
NO_CHARGES


@<TRIPOS>ATOM
   1 C1             0.6065    -0.1909     1.7941 C.ar    
   2 C2             0.3213    -1.5305     1.5921 C.ar    
   3 C3            -0.9923    -1.9458     1.4663 C.ar    
   4 C4            -2.0190    -1.0237     1.5424 C.ar    
   5 C5            -1.7340     0.3142     1.7437 C.ar    
   6 C6            -0.4226     0.7300     1.8758 C.ar    
   7 Cl7            2.2544     0.3320     1.9521 Cl      
   8 Cl8            1.6112    -2.6882     1.4960 Cl      
   9 C9            -3.4497    -1.4766     1.4053 C.3     
  10 C10           -4.0074    -1.8294     2.7857 C.3     
  11 N11           -5.4021    -2.2710     2.6521 N.3     
  12 C12           -5.8970    -2.8407     3.9124 C.3     
  13 C13           -7.1336    -3.6975     3.6339 C.3     
  14 C14           -7.5424    -4.4335     4.9115 C.3     
  15 O15           -8.6243    -5.3217     4.6241 O.3     
  16 O16           -8.2073    -2.8585     3.2034 O.3     
  17 C17           -9.1108    -6.0575     5.6593 C.ar    
  18 C18          -10.1606    -6.9393     5.4498 C.ar    
  19 C19          -10.6549    -7.6872     6.5004 C.ar    
  20 C20          -10.1005    -7.5561     7.7667 C.ar    
  21 C21           -9.0495    -6.6730     7.9756 C.ar    
  22 C22           -8.5529    -5.9298     6.9228 C.ar    
  23 N23          -10.6011    -8.3132     8.8319 N.am    
  24 S24          -11.5303    -7.5906     9.9967 S.o2    
  25 C25          -12.9964    -7.0019     9.1053 C.3     
  26 O26          -11.8749    -8.6508    10.8778 O.2     
  27 O27          -10.7439    -6.4941    10.4421 O.2     
  28 C28           -6.2619    -1.1694     2.1989 C.3     
  29 C29           -6.0959     0.0100     3.1222 C.ar    
  30 C30           -5.1993     1.0137     2.8061 C.ar    
  31 C31           -5.0465     2.0960     3.6518 C.ar    
  32 C32           -5.7918     2.1747     4.8161 C.ar    
  33 C33           -6.6894     1.1689     5.1316 C.ar    
  34 C34           -6.8443     0.0901     4.2817 C.ar    
  35 F35           -5.6429     3.2321     5.6438 F       
  36 H36           -1.2156    -2.9906     1.3083 H       
  37 H37           -2.5370     1.0341     1.8027 H       
  38 H38           -0.2008     1.7752     2.0330 H       
  39 H39           -4.0443    -0.6749     0.9673 H       
  40 H40           -3.4927    -2.3546     0.7608 H       
  41 H41           -3.4129    -2.6312     3.2237 H       
  42 H42           -3.9644    -0.9515     3.4302 H       
  43 H43           -5.1199    -3.4594     4.3613 H       
  44 H44           -6.1602    -2.0345     4.5970 H       
  45 H45           -6.9045    -4.4235     2.8538 H       
  46 H46           -6.6941    -5.0045     5.2891 H       
  47 H47           -7.8565    -3.7095     5.6633 H       
  48 H48           -8.4432    -2.1660     3.8357 H       
  49 H49          -10.5920    -7.0409     4.4649 H       
  50 H50          -11.4727    -8.3735     6.3371 H       
  51 H51           -8.6177    -6.5705     8.9602 H       
  52 H52           -7.7352    -5.2432     7.0850 H       
  53 H53          -10.4037    -9.2613     8.8880 H       
  54 H54          -13.5540    -7.8552     8.7192 H       
  55 H55          -13.6298    -6.4312     9.7845 H       
  56 H56          -12.6865    -6.3654     8.2764 H       
  57 H57           -5.9794    -0.8809     1.1864 H       
  58 H58           -7.3025    -1.4937     2.2072 H       
  59 H59           -4.6178     0.9519     1.8981 H       
  60 H60           -4.3458     2.8798     3.4049 H       
  61 H61           -7.2712     1.2293     6.0394 H       
  62 H62           -7.5444    -0.6946     4.5276 H       
@<TRIPOS>BOND
   1    1    2 ar
   2    1    7 1
   3    1    6 ar
   4    2    3 ar
   5    2    8 1
   6    3    4 ar
   7    3   36 1
   8    4    5 ar
   9    4    9 1
  10    5    6 ar
  11    5   37 1
  12    6   38 1
  13    9   10 1
  14    9   39 1
  15    9   40 1
  16   10   11 1
  17   10   41 1
  18   10   42 1
  19   11   12 1
  20   11   28 1
  21   12   13 1
  22   12   43 1
  23   12   44 1
  24   13   14 1
  25   13   16 1
  26   13   45 1
  27   14   15 1
  28   14   46 1
  29   14   47 1
  30   15   17 1
  31   16   48 1
  32   17   18 ar
  33   17   22 ar
  34   18   19 ar
  35   18   49 1
  36   19   20 ar
  37   19   50 1
  38   20   21 ar
  39   20   23 1
  40   21   22 ar
  41   21   51 1
  42   22   52 1
  43   23   24 am
  44   23   53 1
  45   24   25 1
  46   24   26 2
  47   24   27 2
  48   25   54 1
  49   25   55 1
  50   25   56 1
  51   28   29 1
  52   28   57 1
  53   28   58 1
  54   29   30 ar
  55   29   34 ar
  56   30   31 ar
  57   30   59 1
  58   31   32 ar
  59   31   60 1
  60   32   33 ar
  61   32   35 1
  62   33   34 ar
  63   33   61 1
  64   34   62 1

#	End of record

