#	Name: ASD02560201
#	Creating user name:	WinNT
#	Creation time:	15. 06. 2019 20:24

#	Modifying user name:	WinNT
#	Modification time:	15. 06. 2019 20:24

#	Program:	/corina/corina34_cracker 3.40 0067  02.08.2006

@<TRIPOS>MOLECULE
ASD02560201
  64   68    0    0    0
SMALL
NO_CHARGES


@<TRIPOS>ATOM
   1 O1            -0.1618     1.6533     1.1271 O.3     
   2 Br2           -2.0491   -15.7970    -0.7678 Br      
   3 N3             0.0652   -13.9734    -0.2809 N.2     
   4 N4             0.2963   -13.2073    -1.2216 N.2     
   5 C5            -1.3781   -14.0985    -0.0398 C.3     
   6 N6            -1.9833   -12.9512    -0.7623 N.3     
   7 C7            -0.9482   -12.6733    -1.7899 C.3     
   8 S8            -0.7994   -10.8872    -2.0698 S.3     
   9 C9            -0.3307   -10.2557    -0.4352 C.3     
  10 C10           -0.1661    -8.7592    -0.5031 C.2     
  11 O11           -0.3471    -8.1762    -1.5511 O.2     
  12 N12            0.1823    -8.0688     0.6007 N.am    
  13 C13           -3.1903   -13.3151    -1.3553 C.ar    
  14 C14            0.4194    -6.6966     0.5192 C.ar    
  15 C15            1.3046    -6.0905     1.4069 C.ar    
  16 C16            1.5406    -4.7357     1.3287 C.ar    
  17 C17            0.8901    -3.9699     0.3570 C.ar    
  18 C18            0.0026    -4.5818    -0.5318 C.ar    
  19 C19           -0.2246    -5.9377    -0.4521 C.ar    
  20 Cl20           2.1111    -7.0431     2.6135 Cl      
  21 C21            1.1400    -2.5178     0.2703 C.2     
  22 C22           -4.2627   -13.7767    -0.5621 C.ar    
  23 C23           -3.3501   -13.2224    -2.7216 C.ar    
  24 C24           -4.5516   -13.5834    -3.3235 C.ar    
  25 C25           -5.6006   -14.0368    -2.5830 C.ar    
  26 C26           -5.4808   -14.1414    -1.1869 C.ar    
  27 C27           -4.1449   -13.8816     0.8325 C.ar    
  28 C28           -6.5469   -14.6066    -0.3975 C.ar    
  29 C29           -6.3967   -14.6959     0.9522 C.ar    
  30 C30           -5.2000   -14.3314     1.5662 C.ar    
  31 C31           -6.8911   -14.4207    -3.2599 C.3     
  32 N32            1.1726    -1.7715     1.3921 N.am    
  33 O33            1.3163    -1.9949    -0.8131 O.2     
  34 C34            1.3165    -0.3165     1.3000 C.3     
  35 C35           -0.0475     0.3190     1.2186 C.2     
  36 O36           -1.0381    -0.3724     1.2358 O.2     
  37 C37            1.0641    -2.4153     2.7036 C.3     
  38 C38           -7.6192   -13.3378    -4.0589 C.3     
  39 C39           -6.8986   -14.4730    -4.7890 C.3     
  40 H40           -1.0573     2.0148     1.0773 H       
  41 H41           -1.5921   -14.0308     1.0268 H       
  42 H42           -1.1906   -13.1854    -2.7211 H       
  43 H43           -1.1089   -10.5032     0.2868 H       
  44 H44            0.6101   -10.7110    -0.1258 H       
  45 H45            0.2683    -8.5261     1.4518 H       
  46 H46            2.2269    -4.2657     2.0174 H       
  47 H47           -0.5014    -3.9926    -1.2837 H       
  48 H48           -0.9103    -6.4109    -1.1393 H       
  49 H49           -2.5336   -12.8651    -3.3316 H       
  50 H50           -4.6539   -13.5024    -4.3956 H       
  51 H51           -3.2217   -13.6072     1.3213 H       
  52 H52           -7.4806   -14.8914    -0.8597 H       
  53 H53           -7.2173   -15.0536     1.5564 H       
  54 H54           -5.1062   -14.4121     2.6391 H       
  55 H55           -7.5020   -15.1501    -2.7281 H       
  56 H56            1.8378     0.0536     2.1829 H       
  57 H57            1.8890    -0.0638     0.4075 H       
  58 H58            2.0618    -2.6291     3.0870 H       
  59 H59            0.5448    -1.7498     3.3932 H       
  60 H60            0.5051    -3.3460     2.6064 H       
  61 H61           -8.7090   -13.3551    -4.0530 H       
  62 H62           -7.1647   -12.3478    -4.0949 H       
  63 H63           -5.9700   -14.2297    -5.3054 H       
  64 H64           -7.5143   -15.2370    -5.2635 H       
@<TRIPOS>BOND
   1    1   35 1
   2    1   40 1
   3    2    5 1
   4    3    4 2
   5    3    5 1
   6    4    7 1
   7    5    6 1
   8    5   41 1
   9    6    7 1
  10    6   13 1
  11    7    8 1
  12    7   42 1
  13    8    9 1
  14    9   10 1
  15    9   43 1
  16    9   44 1
  17   10   11 2
  18   10   12 am
  19   12   14 1
  20   12   45 1
  21   13   22 ar
  22   13   23 ar
  23   14   15 ar
  24   14   19 ar
  25   15   16 ar
  26   15   20 1
  27   16   17 ar
  28   16   46 1
  29   17   18 ar
  30   17   21 1
  31   18   19 ar
  32   18   47 1
  33   19   48 1
  34   21   32 am
  35   21   33 2
  36   22   26 ar
  37   22   27 ar
  38   23   24 ar
  39   23   49 1
  40   24   25 ar
  41   24   50 1
  42   25   26 ar
  43   25   31 1
  44   26   28 ar
  45   27   30 ar
  46   27   51 1
  47   28   29 ar
  48   28   52 1
  49   29   30 ar
  50   29   53 1
  51   30   54 1
  52   31   38 1
  53   31   39 1
  54   31   55 1
  55   32   34 1
  56   32   37 1
  57   34   35 1
  58   34   56 1
  59   34   57 1
  60   35   36 2
  61   37   58 1
  62   37   59 1
  63   37   60 1
  64   38   39 1
  65   38   61 1
  66   38   62 1
  67   39   63 1
  68   39   64 1

#	End of record

