#	Name: ASD01810365
#	Creating user name:	WinNT
#	Creation time:	15. 06. 2019 19:24

#	Modifying user name:	WinNT
#	Modification time:	15. 06. 2019 19:24

#	Program:	/corina/corina34_cracker 3.40 0067  02.08.2006

@<TRIPOS>MOLECULE
ASD01810365
  58   61    0    0    0
SMALL
NO_CHARGES


@<TRIPOS>ATOM
   1 C1            -0.0187     1.5258     0.0104 C.3     
   2 C2             0.0021    -0.0041     0.0020 C.3     
   3 O3            -1.3386    -0.4987     0.0122 O.3     
   4 C4            -1.4978    -1.8437     0.0065 C.ar    
   5 C5            -1.5691    -2.5493     1.2052 C.ar    
   6 C6            -1.7345    -3.9470     1.1996 C.ar    
   7 C7            -1.8270    -4.6330     0.0339 C.ar    
   8 C8            -1.7584    -3.9516    -1.1971 C.ar    
   9 C9            -1.5990    -2.5442    -1.2131 C.ar    
  10 C10           -1.5319    -1.8713    -2.4437 C.ar    
  11 C11           -1.6207    -2.5780    -3.6046 C.ar    
  12 C12           -1.7779    -3.9618    -3.5895 C.ar    
  13 C13           -1.8525    -4.6460    -2.4142 C.ar    
  14 C14           -2.0033    -6.1295     0.0550 C.3     
  15 C15           -0.6579    -6.7957    -0.0757 C.ar    
  16 C16            0.0859    -7.1029     1.0536 C.ar    
  17 C17            1.3180    -7.7154     0.8860 C.ar    
  18 C18            1.7617    -7.9979    -0.3936 C.ar    
  19 N19            1.0263    -7.6908    -1.4456 N.ar    
  20 C20           -0.1528    -7.1130    -1.3223 C.ar    
  21 Cl21           3.3031    -8.7642    -0.6180 Cl      
  22 C22           -1.4703    -1.8285     2.4863 C.2     
  23 O23           -1.3270    -0.6208     2.4951 O.2     
  24 N24           -1.5388    -2.5074     3.6486 N.am    
  25 C25           -1.4406    -1.7907     4.9225 C.3     
  26 C26           -2.8211    -1.2632     5.3187 C.3     
  27 C27           -2.7185    -0.5147     6.6491 C.3     
  28 C28           -2.2063    -1.4668     7.7318 C.3     
  29 C29           -0.8258    -1.9942     7.3356 C.3     
  30 C30           -0.9284    -2.7427     6.0051 C.3     
  31 O31            0.3610    -3.2353     5.6351 O.3     
  32 H32            1.0039     1.9031     0.0027 H       
  33 H33           -0.5459     1.8868    -0.8726 H       
  34 H34           -0.5289     1.8773     0.9072 H       
  35 H35            0.5123    -0.3556    -0.8948 H       
  36 H36            0.5293    -0.3651     0.8851 H       
  37 H37           -1.7881    -4.4806     2.1371 H       
  38 H38           -1.4108    -0.7984    -2.4695 H       
  39 H39           -1.5688    -2.0582    -4.5498 H       
  40 H40           -1.8466    -4.4997    -4.5235 H       
  41 H41           -1.9745    -5.7191    -2.4182 H       
  42 H42           -2.4664    -6.4276     0.9957 H       
  43 H43           -2.6408    -6.4321    -0.7757 H       
  44 H44           -0.2860    -6.8701     2.0405 H       
  45 H45            1.9240    -7.9685     1.7434 H       
  46 H46           -0.7264    -6.8769    -2.2063 H       
  47 H47           -1.6532    -3.4706     3.6416 H       
  48 H48           -0.7490    -0.9549     4.8168 H       
  49 H49           -3.1860    -0.5850     4.5473 H       
  50 H50           -3.5128    -2.0990     5.4244 H       
  51 H51           -2.0269     0.3211     6.5434 H       
  52 H52           -3.7020    -0.1390     6.9313 H       
  53 H53           -2.1333    -0.9335     8.6796 H       
  54 H54           -2.8980    -2.3025     7.8375 H       
  55 H55           -0.1342    -1.1584     7.2299 H       
  56 H56           -0.4609    -2.6724     8.1069 H       
  57 H57           -1.6201    -3.5785     6.1109 H       
  58 H58            0.7477    -3.8463     6.2772 H       
@<TRIPOS>BOND
   1    1    2 1
   2    1   32 1
   3    1   33 1
   4    1   34 1
   5    2    3 1
   6    2   35 1
   7    2   36 1
   8    3    4 1
   9    4    5 ar
  10    4    9 ar
  11    5    6 ar
  12    5   22 1
  13    6    7 ar
  14    6   37 1
  15    7    8 ar
  16    7   14 1
  17    8    9 ar
  18    8   13 ar
  19    9   10 ar
  20   10   11 ar
  21   10   38 1
  22   11   12 ar
  23   11   39 1
  24   12   13 ar
  25   12   40 1
  26   13   41 1
  27   14   15 1
  28   14   42 1
  29   14   43 1
  30   15   16 ar
  31   15   20 ar
  32   16   17 ar
  33   16   44 1
  34   17   18 ar
  35   17   45 1
  36   18   19 ar
  37   18   21 1
  38   19   20 ar
  39   20   46 1
  40   22   23 2
  41   22   24 am
  42   24   25 1
  43   24   47 1
  44   25   26 1
  45   25   30 1
  46   25   48 1
  47   26   27 1
  48   26   49 1
  49   26   50 1
  50   27   28 1
  51   27   51 1
  52   27   52 1
  53   28   29 1
  54   28   53 1
  55   28   54 1
  56   29   30 1
  57   29   55 1
  58   29   56 1
  59   30   31 1
  60   30   57 1
  61   31   58 1

#	End of record

