#	Name: ASD09116275
#	Creating user name:	WinNT
#	Creation time:	15. 06. 2019 21:21

#	Modifying user name:	WinNT
#	Modification time:	15. 06. 2019 21:21

#	Program:	/corina/corina34_cracker 3.40 0067  02.08.2006

@<TRIPOS>MOLECULE
ASD09116275
  56   61    0    0    0
SMALL
NO_CHARGES


@<TRIPOS>ATOM
   1 N1            -0.0297     1.4195     0.1497 N.pl3   
   2 N2            -0.0211     0.0208     0.2736 N.2     
   3 C3             1.2667     1.8083     0.1169 C.2     
   4 N4             2.0153     0.7302     0.2134 N.2     
   5 C5             1.2356    -0.3527     0.3083 C.2     
   6 N6             1.7235     3.1085     0.0019 N.pl3   
   7 C7             3.0915     3.3795     0.0958 C.ar    
   8 C8             3.6361     4.4640    -0.5806 C.ar    
   9 C9             4.9871     4.7225    -0.4840 C.ar    
  10 C10            5.8060     3.9070     0.2837 C.ar    
  11 C11            5.2684     2.8321     0.9601 C.ar    
  12 C12            3.9103     2.5703     0.8693 C.ar    
  13 C13           -1.1526     2.2450     0.0700 C.ar    
  14 N14           -1.0704     3.5130     0.4445 N.ar    
  15 N15           -2.0763     4.3122     0.4004 N.ar    
  16 C16           -3.2635     3.9104    -0.0244 C.ar    
  17 C17           -3.4396     2.5939    -0.4602 C.ar    
  18 C18           -2.3617     1.7354    -0.4101 C.ar    
  19 C19           -4.4373     4.8140    -0.0253 C.ar    
  20 C20           -5.6326     4.3677     0.5407 C.ar    
  21 C21           -5.6822     3.0089     1.1839 C.3     
  22 C22           -5.7583     1.9001     0.1377 C.3     
  23 C23           -4.7719     2.1594    -0.9979 C.3     
  24 C24           -4.3632     6.0863    -0.5814 C.ar    
  25 C25           -5.4824     6.8962    -0.5870 C.ar    
  26 C26           -6.6707     6.4421    -0.0442 C.ar    
  27 C27           -6.7462     5.1796     0.5184 C.ar    
  28 N28            1.6865    -1.6671     0.4258 N.pl3   
  29 C29            7.2781     4.2252     0.3478 C.3     
  30 C30            7.9173     3.5033     1.5343 C.3     
  31 N31            7.5346     2.0835     1.4792 N.3     
  32 C32            6.1160     1.9267     1.8152 C.3     
  33 H33            1.0946     3.8324    -0.1440 H       
  34 H34            3.0037     5.1020    -1.1801 H       
  35 H35            5.4107     5.5654    -1.0099 H       
  36 H36            3.4892     1.7270     1.3965 H       
  37 H37           -2.4510     0.7053    -0.7221 H       
  38 H38           -4.7864     2.8677     1.7886 H       
  39 H39           -6.5591     2.9514     1.8287 H       
  40 H40           -5.5210     0.9460     0.6082 H       
  41 H41           -6.7692     1.8580    -0.2677 H       
  42 H42           -5.1689     2.9406    -1.6461 H       
  43 H43           -4.6437     1.2450    -1.5771 H       
  44 H44           -3.4354     6.4396    -1.0064 H       
  45 H45           -5.4292     7.8860    -1.0157 H       
  46 H46           -7.5448     7.0762    -0.0593 H       
  47 H47           -7.6776     4.8306     0.9391 H       
  48 H48            2.6383    -1.8536     0.4435 H       
  49 H49            1.0484    -2.3949     0.4898 H       
  50 H50            7.7590     3.9006    -0.5750 H       
  51 H51            7.4110     5.3007     0.4643 H       
  52 H52            9.0020     3.5926     1.4760 H       
  53 H53            7.5604     3.9428     2.4657 H       
  54 H54            7.7372     1.6892     0.5728 H       
  55 H55            5.9646     2.1772     2.8652 H       
  56 H56            5.8185     0.8915     1.6485 H       
@<TRIPOS>BOND
   1    1    2 1
   2    1    3 1
   3    1   13 1
   4    2    5 2
   5    3    4 2
   6    3    6 1
   7    4    5 1
   8    5   28 1
   9    6    7 1
  10    6   33 1
  11    7    8 ar
  12    7   12 ar
  13    8    9 ar
  14    8   34 1
  15    9   10 ar
  16    9   35 1
  17   10   11 ar
  18   10   29 1
  19   11   12 ar
  20   11   32 1
  21   12   36 1
  22   13   14 ar
  23   13   18 ar
  24   14   15 ar
  25   15   16 ar
  26   16   17 ar
  27   16   19 1
  28   17   18 ar
  29   17   23 1
  30   18   37 1
  31   19   20 ar
  32   19   24 ar
  33   20   21 1
  34   20   27 ar
  35   21   22 1
  36   21   38 1
  37   21   39 1
  38   22   23 1
  39   22   40 1
  40   22   41 1
  41   23   42 1
  42   23   43 1
  43   24   25 ar
  44   24   44 1
  45   25   26 ar
  46   25   45 1
  47   26   27 ar
  48   26   46 1
  49   27   47 1
  50   28   48 1
  51   28   49 1
  52   29   30 1
  53   29   50 1
  54   29   51 1
  55   30   31 1
  56   30   52 1
  57   30   53 1
  58   31   32 1
  59   31   54 1
  60   32   55 1
  61   32   56 1

#	End of record

