#	Name: ASD01916474
#	Creating user name:	WinNT
#	Creation time:	15. 06. 2019 20:07

#	Modifying user name:	WinNT
#	Modification time:	15. 06. 2019 20:07

#	Program:	/corina/corina34_cracker 3.40 0067  02.08.2006

@<TRIPOS>MOLECULE
ASD01916474
  39   43    0    0    0
SMALL
NO_CHARGES


@<TRIPOS>ATOM
   1 C1            -0.0171     1.4100     0.0098 C.ar    
   2 C2             0.0021    -0.0041     0.0020 C.ar    
   3 C3            -1.1909    -0.7261    -0.0308 C.ar    
   4 C4            -2.3843    -0.0656    -0.0381 C.ar    
   5 C5            -2.4222     1.3368    -0.0111 C.ar    
   6 C6            -1.2416     2.0755     0.0119 C.ar    
   7 N7             1.1587     2.0831     0.0022 N.2     
   8 C8             2.3109     1.4716     0.0190 C.2     
   9 N9             2.4086     0.1185     0.1410 N.am    
  10 C10            1.3116    -0.6683     0.0470 C.2     
  11 C11           -3.6842     2.0136    -0.0067 C.1     
  12 C12           -4.7188     2.5685    -0.0031 C.1     
  13 C13           -5.9807     3.2453     0.0013 C.ar    
  14 N14           -6.0169     4.5741     0.0268 N.ar    
  15 C15           -7.1571     5.2330     0.0317 C.ar    
  16 C16           -8.3664     4.5617     0.0108 C.ar    
  17 C17           -8.3758     3.1736    -0.0163 C.ar    
  18 C18           -7.1652     2.5046    -0.0271 C.ar    
  19 O19            1.4064    -1.8812     0.0009 O.2     
  20 C20            3.5590     2.2970    -0.1692 C.3     
  21 C21            4.8687     1.5319    -0.3877 C.3     
  22 C22            4.7573     0.0052    -0.5429 C.3     
  23 C23            3.7021    -0.5062     0.4410 C.3     
  24 C24            4.2365     2.3452    -1.5301 C.3     
  25 H25           -1.1697    -1.8057    -0.0509 H       
  26 H26           -3.3070    -0.6262    -0.0652 H       
  27 H27           -1.2748     3.1548     0.0304 H       
  28 H28           -7.1479     6.3127     0.0528 H       
  29 H29           -9.2953     5.1126     0.0157 H       
  30 H30           -9.3078     2.6282    -0.0330 H       
  31 H31           -7.1360     1.4252    -0.0484 H       
  32 H32            3.6117     3.2038     0.4333 H       
  33 H33            5.7719     1.9006     0.0984 H       
  34 H34            4.4568    -0.2386    -1.5619 H       
  35 H35            5.7194    -0.4568    -0.3211 H       
  36 H36            4.0007    -0.2526     1.4581 H       
  37 H37            3.6130    -1.5885     0.3480 H       
  38 H38            3.7700     1.7906    -2.3442 H       
  39 H39            4.7262     3.2763    -1.8156 H       
@<TRIPOS>BOND
   1    1    2 ar
   2    1    7 1
   3    1    6 ar
   4    2    3 ar
   5    2   10 1
   6    3    4 ar
   7    3   25 1
   8    4    5 ar
   9    4   26 1
  10    5    6 ar
  11    5   11 1
  12    6   27 1
  13    7    8 2
  14    8    9 1
  15    8   20 1
  16    9   10 am
  17    9   23 1
  18   10   19 2
  19   11   12 3
  20   12   13 1
  21   13   14 ar
  22   13   18 ar
  23   14   15 ar
  24   15   16 ar
  25   15   28 1
  26   16   17 ar
  27   16   29 1
  28   17   18 ar
  29   17   30 1
  30   18   31 1
  31   20   21 1
  32   20   24 1
  33   20   32 1
  34   21   22 1
  35   21   24 1
  36   21   33 1
  37   22   23 1
  38   22   34 1
  39   22   35 1
  40   23   36 1
  41   23   37 1
  42   24   38 1
  43   24   39 1

#	End of record

