#	Name: ASD01841071
#	Creating user name:	WinNT
#	Creation time:	15. 06. 2019 19:38

#	Modifying user name:	WinNT
#	Modification time:	15. 06. 2019 19:38

#	Program:	/corina/corina34_cracker 3.40 0067  02.08.2006

@<TRIPOS>MOLECULE
ASD01841071
  30   32    0    0    0
SMALL
NO_CHARGES


@<TRIPOS>ATOM
   1 N1            -0.0154     1.2836     0.0091 N.2     
   2 C2             0.0021    -0.0041     0.0020 C.2     
   3 S3             1.6576    -0.5950    -0.0170 S.3     
   4 C4             2.2643     1.0602    -0.0139 C.ar    
   5 C5             1.1663     1.9286     0.0013 C.ar    
   6 C6             1.4223     3.3168     0.0063 C.ar    
   7 C7             2.7303     3.7508    -0.0039 C.ar    
   8 C8             3.7596     2.8241    -0.0187 C.ar    
   9 N9             3.5058     1.5337    -0.0236 N.ar    
  10 N10           -1.1246    -0.8098     0.0084 N.am    
  11 C11           -0.9939    -2.1511    -0.0000 C.2     
  12 C12           -2.2197    -3.0277     0.0070 C.3     
  13 O13            0.1101    -2.6527    -0.0132 O.2     
  14 C14           -1.8076    -4.5102    -0.0049 C.3     
  15 C15           -2.3740    -5.1354     1.2867 C.3     
  16 C16           -3.5567    -4.2113     1.6691 C.3     
  17 C17           -3.0221    -2.8038     1.3054 C.3     
  18 H18            0.6078     4.0260     0.0175 H       
  19 H19            2.9515     4.8079    -0.0007 H       
  20 H20            4.7841     3.1658    -0.0266 H       
  21 H21           -2.0077    -0.4086     0.0190 H       
  22 H22           -2.8418    -2.8061    -0.8602 H       
  23 H23           -2.2305    -5.0083    -0.8774 H       
  24 H24           -0.7210    -4.5957    -0.0157 H       
  25 H25           -2.7277    -6.1488     1.0967 H       
  26 H26           -1.6196    -5.1349     2.0734 H       
  27 H27           -4.4415    -4.4525     1.0800 H       
  28 H28           -3.7709    -4.2794     2.7356 H       
  29 H29           -2.3723    -2.4267     2.0951 H       
  30 H30           -3.8487    -2.1155     1.1290 H       
@<TRIPOS>BOND
   1    1    2 2
   2    1    5 1
   3    2    3 1
   4    2   10 1
   5    3    4 1
   6    4    5 ar
   7    4    9 ar
   8    5    6 ar
   9    6    7 ar
  10    6   18 1
  11    7    8 ar
  12    7   19 1
  13    8    9 ar
  14    8   20 1
  15   10   11 am
  16   10   21 1
  17   11   12 1
  18   11   13 2
  19   12   14 1
  20   12   17 1
  21   12   22 1
  22   14   15 1
  23   14   23 1
  24   14   24 1
  25   15   16 1
  26   15   25 1
  27   15   26 1
  28   16   17 1
  29   16   27 1
  30   16   28 1
  31   17   29 1
  32   17   30 1

#	End of record

