#	Name: ASD01917610
#	Creating user name:	WinNT
#	Creation time:	15. 06. 2019 20:09

#	Modifying user name:	WinNT
#	Modification time:	15. 06. 2019 20:09

#	Program:	/corina/corina34_cracker 3.40 0067  02.08.2006

@<TRIPOS>MOLECULE
ASD01917610
  25   27    0    0    0
SMALL
NO_CHARGES


@<TRIPOS>ATOM
   1 C1            -0.0161     1.3336     0.0094 C.2     
   2 N2             0.0021    -0.0041     0.0020 N.2     
   3 C3             1.1389    -0.6632    -0.0124 C.2     
   4 C4             2.3561     0.0287    -0.0203 C.2     
   5 C5             2.3466     1.3880    -0.0129 C.2     
   6 N6             1.1540     2.0390     0.0020 N.pl3   
   7 N7             0.8014     3.3949     0.0122 N.2     
   8 C8            -0.5149     3.4506     0.0248 C.2     
   9 N9            -1.0104     2.2156     0.0182 N.2     
  10 N10           -1.2703     4.6201     0.0382 N.3     
  11 C11           -2.7132     4.3171     0.0500 C.3     
  12 C12           -3.3152     5.0074     1.2920 C.3     
  13 C13           -2.2891     6.1296     1.5998 C.3     
  14 C14           -0.9523     5.4427     1.2248 C.3     
  15 Br15           3.9938    -0.9166    -0.0404 Br      
  16 H16            1.1342    -1.7432    -0.0178 H       
  17 H17            3.2734     1.9424    -0.0191 H       
  18 H18           -3.1813     4.7064    -0.8540 H       
  19 H19           -2.8653     3.2397     0.1145 H       
  20 H20           -4.2925     5.4315     1.0614 H       
  21 H21           -3.3840     4.3088     2.1258 H       
  22 H22           -2.4676     7.0042     0.9743 H       
  23 H23           -2.3079     6.3967     2.6564 H       
  24 H24           -0.6077     4.8107     2.0433 H       
  25 H25           -0.1981     6.1897     0.9776 H       
@<TRIPOS>BOND
   1    1    2 1
   2    1    6 1
   3    1    9 2
   4    2    3 2
   5    3    4 1
   6    3   16 1
   7    4    5 2
   8    4   15 1
   9    5    6 1
  10    5   17 1
  11    6    7 1
  12    7    8 2
  13    8    9 1
  14    8   10 1
  15   10   11 1
  16   10   14 1
  17   11   12 1
  18   11   18 1
  19   11   19 1
  20   12   13 1
  21   12   20 1
  22   12   21 1
  23   13   14 1
  24   13   22 1
  25   13   23 1
  26   14   24 1
  27   14   25 1

#	End of record

