#	Name: ASD01882066
#	Creating user name:	WinNT
#	Creation time:	15. 06. 2019 19:43

#	Modifying user name:	WinNT
#	Modification time:	15. 06. 2019 19:43

#	Program:	/corina/corina34_cracker 3.40 0067  02.08.2006

@<TRIPOS>MOLECULE
ASD01882066
  30   31    0    0    0
SMALL
NO_CHARGES


@<TRIPOS>ATOM
   1 N1            -0.0154     1.2839     0.0091 N.pl3   
   2 N2             0.0021    -0.0041     0.0020 N.2     
   3 N3             1.2033    -0.4649    -0.0119 N.2     
   4 C4             2.0742     0.5645    -0.0147 C.ar    
   5 C5             1.2843     1.7298    -0.0009 C.ar    
   6 C6             3.4665     0.6757    -0.0271 C.ar    
   7 C7             4.0479     1.9273    -0.0255 C.ar    
   8 C8             3.2559     3.0735    -0.0113 C.ar    
   9 C9             1.8925     2.9784    -0.0000 C.ar    
  10 O10            5.4026     2.0427    -0.0374 O.3     
  11 C11           -1.2133     2.1272     0.0196 C.3     
  12 C12           -1.6228     2.4135     1.4657 C.3     
  13 C13           -0.4829     3.1377     2.1848 C.3     
  14 C14           -2.8739     3.2942     1.4767 C.3     
  15 C15           -1.9212     1.0947     2.1819 C.3     
  16 H16            4.0832    -0.2108    -0.0374 H       
  17 H17            3.7239     4.0468    -0.0099 H       
  18 H18            1.2884     3.8736     0.0109 H       
  19 H19            5.7863     2.0810    -0.9242 H       
  20 H20           -1.0007     3.0667    -0.4906 H       
  21 H21           -2.0254     1.6113    -0.4926 H       
  22 H22           -0.2704     4.0772     1.6746 H       
  23 H23           -0.7746     3.3417     3.2150 H       
  24 H24            0.4084     2.5103     2.1769 H       
  25 H25           -3.6859     2.7782     0.9645 H       
  26 H26           -3.1656     3.4981     2.5070 H       
  27 H27           -2.6613     4.2337     0.9666 H       
  28 H28           -1.0299     0.4673     2.1740 H       
  29 H29           -2.2129     1.2987     3.2121 H       
  30 H30           -2.7332     0.5788     1.6696 H       
@<TRIPOS>BOND
   1    1    2 1
   2    1    5 1
   3    1   11 1
   4    2    3 2
   5    3    4 1
   6    4    5 ar
   7    4    6 ar
   8    5    9 ar
   9    6    7 ar
  10    6   16 1
  11    7    8 ar
  12    7   10 1
  13    8    9 ar
  14    8   17 1
  15    9   18 1
  16   10   19 1
  17   11   12 1
  18   11   20 1
  19   11   21 1
  20   12   13 1
  21   12   14 1
  22   12   15 1
  23   13   22 1
  24   13   23 1
  25   13   24 1
  26   14   25 1
  27   14   26 1
  28   14   27 1
  29   15   28 1
  30   15   29 1
  31   15   30 1

#	End of record

