#	Name: ASD02508336
#	Creating user name:	WinNT
#	Creation time:	15. 06. 2019 20:24

#	Modifying user name:	WinNT
#	Modification time:	15. 06. 2019 20:24

#	Program:	/corina/corina34_cracker 3.40 0067  02.08.2006

@<TRIPOS>MOLECULE
ASD02508336
  50   54    0    0    0
SMALL
NO_CHARGES


@<TRIPOS>ATOM
   1 C1            -0.0167     1.3818     0.0096 C.ar    
   2 C2             0.0021    -0.0041     0.0020 C.ar    
   3 C3            -1.1791    -0.7210     0.0094 C.ar    
   4 C4            -2.3927    -0.0595     0.0241 C.ar    
   5 C5            -2.4226     1.3232     0.0318 C.ar    
   6 C6            -1.2470     2.0428     0.0303 C.ar    
   7 S7            -3.8979    -0.9754     0.0324 S.o2    
   8 C8            -4.3283    -1.2562     1.7178 C.ar    
   9 C9            -5.1196    -0.3428     2.3893 C.ar    
  10 C10           -3.8790    -2.3919     2.3645 C.ar    
  11 C11           -4.2170    -2.6159     3.6909 C.ar    
  12 C12           -5.0058    -1.6937     4.3683 C.ar    
  13 C13           -5.4585    -0.5590     3.7115 C.ar    
  14 O14           -3.7734    -3.7426     4.3124 O.3     
  15 C15           -3.8195    -3.7490     5.7434 C.3     
  16 C16           -5.1913    -3.2194     6.1826 C.3     
  17 O17           -5.3431    -1.8903     5.6722 O.3     
  18 N18            1.2734     1.9143     0.0002 N.am    
  19 C19            2.2636     0.8343    -0.0151 C.3     
  20 C20            1.4421    -0.4653    -0.0142 C.3     
  21 O21           -4.8952    -0.1134    -0.4982 O.2     
  22 O22           -3.5959    -2.2485    -0.5220 O.2     
  23 S23            1.6327     3.5309     0.0049 S.o2    
  24 O24            2.9345     3.6543    -0.5512 O.2     
  25 O25            0.4947     4.1964    -0.5255 O.2     
  26 C26            1.7616     4.0316     1.6894 C.ar    
  27 C27            2.9812     3.9681     2.3373 C.ar    
  28 C28            3.0836     4.3610     3.6583 C.ar    
  29 C29            1.9642     4.8183     4.3329 C.ar    
  30 C30            0.7433     4.8814     3.6828 C.ar    
  31 C31            0.6444     4.4929     2.3603 C.ar    
  32 F32            2.0631     5.2022     5.6244 F       
  33 H33           -1.1540    -1.8007     0.0034 H       
  34 H34           -3.3703     1.8409     0.0433 H       
  35 H35           -1.2773     3.1223     0.0363 H       
  36 H36           -5.4732     0.5414     1.8798 H       
  37 H37           -3.2644    -3.1059     1.8364 H       
  38 H38           -6.0728     0.1584     4.2352 H       
  39 H39           -3.6833    -4.7660     6.1110 H       
  40 H40           -3.0334    -3.1061     6.1394 H       
  41 H41           -5.9778    -3.8590     5.7819 H       
  42 H42           -5.2482    -3.2039     7.2710 H       
  43 H43            2.8751     0.8945    -0.9154 H       
  44 H44            2.8922     0.8849     0.8740 H       
  45 H45            1.6629    -1.0543     0.8760 H       
  46 H46            1.6458    -1.0446    -0.9148 H       
  47 H47            3.8541     3.6110     1.8111 H       
  48 H48            4.0364     4.3110     4.1645 H       
  49 H49           -0.1305     5.2379     4.2080 H       
  50 H50           -0.3078     4.5421     1.8530 H       
@<TRIPOS>BOND
   1    1    2 ar
   2    1   18 1
   3    1    6 ar
   4    2    3 ar
   5    2   20 1
   6    3    4 ar
   7    3   33 1
   8    4    5 ar
   9    4    7 1
  10    5    6 ar
  11    5   34 1
  12    6   35 1
  13    7    8 1
  14    7   21 2
  15    7   22 2
  16    8    9 ar
  17    8   10 ar
  18    9   13 ar
  19    9   36 1
  20   10   11 ar
  21   10   37 1
  22   11   12 ar
  23   11   14 1
  24   12   13 ar
  25   12   17 1
  26   13   38 1
  27   14   15 1
  28   15   16 1
  29   15   39 1
  30   15   40 1
  31   16   17 1
  32   16   41 1
  33   16   42 1
  34   18   19 1
  35   18   23 am
  36   19   20 1
  37   19   43 1
  38   19   44 1
  39   20   45 1
  40   20   46 1
  41   23   24 2
  42   23   25 2
  43   23   26 1
  44   26   27 ar
  45   26   31 ar
  46   27   28 ar
  47   27   47 1
  48   28   29 ar
  49   28   48 1
  50   29   30 ar
  51   29   32 1
  52   30   31 ar
  53   30   49 1
  54   31   50 1

#	End of record

