#	Name: ASD05490131
#	Creating user name:	WinNT
#	Creation time:	15. 06. 2019 21:01

#	Modifying user name:	WinNT
#	Modification time:	15. 06. 2019 21:01

#	Program:	/corina/corina34_cracker 3.40 0067  02.08.2006

@<TRIPOS>MOLECULE
ASD05490131
  75   78    0    0    0
SMALL
NO_CHARGES


@<TRIPOS>ATOM
   1 N1             0.0591     1.2547     0.1892 N.ar    
   2 C2             1.1649     1.9825     0.1597 C.ar    
   3 C3             2.4092     1.3790     0.0797 C.ar    
   4 C4             2.4883    -0.0111     0.0301 C.ar    
   5 C5             1.3048    -0.7439     0.0632 C.ar    
   6 C6             0.0949    -0.0698     0.1439 C.ar    
   7 O7             1.0782     3.3357     0.2080 O.3     
   8 N8            -1.0930    -0.7912     0.1775 N.pl3   
   9 N9             3.7247    -0.6540    -0.0513 N.am    
  10 C10            4.2505    -1.0683    -1.3544 C.3     
  11 C11            5.0112     0.0747    -1.9756 C.ar    
  12 C12            6.3763     0.1812    -1.7796 C.ar    
  13 C13            4.3427     1.0104    -2.7443 C.ar    
  14 C14            7.0779     1.2262    -2.3458 C.ar    
  15 C15            6.4086     2.1748    -3.1163 C.ar    
  16 C16            5.0345     2.0590    -3.3159 C.ar    
  17 C17            7.1575     3.3008    -3.7272 C.ar    
  18 C18           -0.2325     3.8993     0.2895 C.3     
  19 C19           -0.1296     5.4251     0.3343 C.3     
  20 O20            0.4112     5.9025    -0.8993 O.3     
  21 C21            0.5496     7.3234    -0.9621 C.3     
  22 C22            6.4881     4.2495    -4.4979 C.ar    
  23 C23            8.5315     3.4166    -3.5276 C.ar    
  24 C24            9.2232     4.4661    -4.0983 C.ar    
  25 C25            8.5547     5.4018    -4.8665 C.ar    
  26 C26            7.1895     5.2946    -5.0636 C.ar    
  27 C27            6.4680     6.3181    -5.9020 C.3     
  28 N28            6.4571     5.8823    -7.3048 N.3     
  29 C29            5.5621     6.7294    -8.1144 C.3     
  30 C30            6.4058     7.3168    -9.2652 C.3     
  31 C31            7.5913     6.3219    -9.3726 C.3     
  32 C32            7.8145     5.9397    -7.8881 C.3     
  33 N33            1.3371    -2.2230     0.0124 N.pl3   
  34 O34            1.4833    -2.8645     1.0374 O.2     
  35 O35            1.2174    -2.7985    -1.0543 O.2     
  36 C36            4.4347    -0.8936     1.0689 C.2     
  37 O37            5.5109    -1.4532     0.9981 O.2     
  38 O38            3.9514    -0.5129     2.2666 O.3     
  39 C39            4.0620    -0.3004     4.6900 C.3     
  40 C40            4.7699    -0.8032     3.4302 C.3     
  41 H41            3.3071     1.9787     0.0557 H       
  42 H42           -1.0729    -1.7604     0.1447 H       
  43 H43           -1.9419    -0.3253     0.2339 H       
  44 H44            4.9179    -1.9200    -1.2228 H       
  45 H45            3.4241    -1.3516    -2.0063 H       
  46 H46            6.8941    -0.5546    -1.1822 H       
  47 H47            3.2774     0.9201    -2.8977 H       
  48 H48            8.1436     1.3088    -2.1915 H       
  49 H49            4.5108     2.7912    -3.9126 H       
  50 H50           -0.8118     3.5996    -0.5839 H       
  51 H51           -0.7262     3.5417     1.1931 H       
  52 H52           -1.1211     5.8519     0.4856 H       
  53 H53            0.5227     5.7214     1.1558 H       
  54 H54            0.9662     7.6055    -1.9290 H       
  55 H55           -0.4279     7.7895    -0.8376 H       
  56 H56            1.2160     7.6590    -0.1675 H       
  57 H57            5.4224     4.1668    -4.6524 H       
  58 H58            9.0543     2.6868    -2.9273 H       
  59 H59           10.2883     4.5568    -3.9442 H       
  60 H60            9.0996     6.2217    -5.3106 H       
  61 H61            5.4431     6.4223    -5.5459 H       
  62 H62            6.9792     7.2777    -5.8236 H       
  63 H63            4.7490     6.1276    -8.5204 H       
  64 H64            5.1593     7.5354    -7.5010 H       
  65 H65            5.8330     7.3353   -10.1924 H       
  66 H66            6.7622     8.3151    -9.0111 H       
  67 H67            7.3157     5.4484    -9.9635 H       
  68 H68            8.4738     6.8093    -9.7871 H       
  69 H69            8.4114     6.7010    -7.3858 H       
  70 H70            8.3001     4.9666    -7.8156 H       
  71 H71            3.9067     0.7758     4.6144 H       
  72 H72            3.0986    -0.8005     4.7895 H       
  73 H73            4.6765    -0.5184     5.5635 H       
  74 H74            4.9252    -1.8795     3.5058 H       
  75 H75            5.7333    -0.3032     3.3307 H       
@<TRIPOS>BOND
   1    1    2 ar
   2    1    6 ar
   3    2    3 ar
   4    2    7 1
   5    3    4 ar
   6    3   41 1
   7    4    5 ar
   8    4    9 1
   9    5    6 ar
  10    5   33 1
  11    6    8 1
  12    7   18 1
  13    8   42 1
  14    8   43 1
  15    9   10 1
  16    9   36 am
  17   10   11 1
  18   10   44 1
  19   10   45 1
  20   11   12 ar
  21   11   13 ar
  22   12   14 ar
  23   12   46 1
  24   13   16 ar
  25   13   47 1
  26   14   15 ar
  27   14   48 1
  28   15   16 ar
  29   15   17 1
  30   16   49 1
  31   17   22 ar
  32   17   23 ar
  33   18   19 1
  34   18   50 1
  35   18   51 1
  36   19   20 1
  37   19   52 1
  38   19   53 1
  39   20   21 1
  40   21   54 1
  41   21   55 1
  42   21   56 1
  43   22   26 ar
  44   22   57 1
  45   23   24 ar
  46   23   58 1
  47   24   25 ar
  48   24   59 1
  49   25   26 ar
  50   25   60 1
  51   26   27 1
  52   27   28 1
  53   27   61 1
  54   27   62 1
  55   28   29 1
  56   28   32 1
  57   29   30 1
  58   29   63 1
  59   29   64 1
  60   30   31 1
  61   30   65 1
  62   30   66 1
  63   31   32 1
  64   31   67 1
  65   31   68 1
  66   32   69 1
  67   32   70 1
  68   33   34 2
  69   33   35 2
  70   36   37 2
  71   36   38 1
  72   38   40 1
  73   39   40 1
  74   39   71 1
  75   39   72 1
  76   39   73 1
  77   40   74 1
  78   40   75 1

#	End of record

