#	Name: ASD03330608
#	Creating user name:	WinNT
#	Creation time:	15. 06. 2019 20:37

#	Modifying user name:	WinNT
#	Modification time:	15. 06. 2019 20:37

#	Program:	/corina/corina34_cracker 3.40 0067  02.08.2006

@<TRIPOS>MOLECULE
ASD03330608
  66   67    0    0    0
SMALL
NO_CHARGES


@<TRIPOS>ATOM
   1 C1             0.1610     1.2188     0.7160 C.2     
   2 N2             0.2494    -0.1104     0.9859 N.pl3   
   3 C3             1.4342     1.6975     0.6369 C.2     
   4 N4             2.2777     0.6630     0.8398 N.2     
   5 C5             1.5760    -0.4290     1.0448 C.2     
   6 C6             2.1278    -1.7713     1.2954 C.2     
   7 C7             1.8215     3.0952     0.3755 C.2     
   8 O8             0.9652     3.9423     0.2071 O.2     
   9 C9             3.5098     4.8242     0.0632 C.3     
  10 N10            3.1248     3.4348     0.3230 N.am    
  11 C11            3.5355     5.0725    -1.4463 C.3     
  12 C12            2.1197     4.9352    -2.0099 C.3     
  13 C13            4.0597     6.4832    -1.7222 C.3     
  14 C14            4.4527     4.0475    -2.1163 C.3     
  15 C15            4.8788     5.0819     0.6380 C.2     
  16 N16            5.3628     6.3388     0.6885 N.am    
  17 O17            5.5451     4.1584     1.0552 O.2     
  18 C18            6.7244     6.5805     1.1722 C.3     
  19 C19           -0.8864    -1.0141     1.1877 C.3     
  20 C20           -1.9136    -0.7863     0.0742 C.3     
  21 C21           -2.8740     0.3275     0.4787 C.3     
  22 N22           -2.1935     1.3432     1.2845 N.3     
  23 C23           -1.1163     1.9948     0.5245 C.3     
  24 C24           -3.1484     2.3338     1.7989 C.3     
  25 C25            4.0079    -3.3269     1.5842 C.3     
  26 C26            2.8615    -4.3225     1.7722 C.3     
  27 C27            3.4434    -1.9533     1.3278 C.2     
  28 C28            4.8693    -3.2963     2.8483 C.3     
  29 C29            4.8661    -3.7562     0.3926 C.3     
  30 H30            1.4629    -2.6077     1.4529 H       
  31 H31            2.7879     5.4946     0.5295 H       
  32 H32            3.8078     2.7592     0.4573 H       
  33 H33            1.4663     5.6655    -1.5326 H       
  34 H34            2.1380     5.1122    -3.0853 H       
  35 H35            1.7463     3.9303    -1.8133 H       
  36 H36            5.0206     6.6173    -1.2255 H       
  37 H37            4.1835     6.6212    -2.7964 H       
  38 H38            3.3484     7.2161    -1.3414 H       
  39 H39            4.0793     3.0425    -1.9197 H       
  40 H40            4.4710     4.2244    -3.1917 H       
  41 H41            5.4614     4.1453    -1.7148 H       
  42 H42            4.8097     7.0833     0.4045 H       
  43 H43            7.4348     6.0501     0.5382 H       
  44 H44            6.9367     7.6492     1.1407 H       
  45 H45            6.8146     6.2222     2.1977 H       
  46 H46           -0.5398    -2.0471     1.1578 H       
  47 H47           -1.3463    -0.8108     2.1548 H       
  48 H48           -1.3971    -0.5041    -0.8432 H       
  49 H49           -2.4748    -1.7053    -0.0947 H       
  50 H50           -3.2781     0.7950    -0.4192 H       
  51 H51           -3.6928    -0.0991     1.0582 H       
  52 H52           -0.9810     3.0144     0.8854 H       
  53 H53           -1.3765     2.0131    -0.5338 H       
  54 H54           -3.8908     1.8339     2.4211 H       
  55 H55           -2.6166     3.0764     2.3937 H       
  56 H56           -3.6465     2.8263     0.9637 H       
  57 H57            2.2501    -4.0166     2.6212 H       
  58 H58            2.2478    -4.3443     0.8716 H       
  59 H59            3.2698    -5.3160     1.9577 H       
  60 H60            4.1083    -1.1170     1.1703 H       
  61 H61            5.2776    -4.2898     3.0338 H       
  62 H62            5.6860    -2.5870     2.7144 H       
  63 H63            4.2579    -2.9905     3.6973 H       
  64 H64            4.2524    -3.7779    -0.5080 H       
  65 H65            5.6828    -3.0469     0.2587 H       
  66 H66            5.2744    -4.7497     0.5781 H       
@<TRIPOS>BOND
   1    1    2 1
   2    1    3 2
   3    1   23 1
   4    2   19 1
   5    2    5 1
   6    3    4 1
   7    3    7 1
   8    4    5 2
   9    5    6 1
  10    6   27 2
  11    6   30 1
  12    7    8 2
  13    7   10 am
  14    9   10 1
  15    9   11 1
  16    9   15 1
  17    9   31 1
  18   10   32 1
  19   11   12 1
  20   11   13 1
  21   11   14 1
  22   12   33 1
  23   12   34 1
  24   12   35 1
  25   13   36 1
  26   13   37 1
  27   13   38 1
  28   14   39 1
  29   14   40 1
  30   14   41 1
  31   15   16 am
  32   15   17 2
  33   16   18 1
  34   16   42 1
  35   18   43 1
  36   18   44 1
  37   18   45 1
  38   19   20 1
  39   19   46 1
  40   19   47 1
  41   20   21 1
  42   20   48 1
  43   20   49 1
  44   21   22 1
  45   21   50 1
  46   21   51 1
  47   22   23 1
  48   22   24 1
  49   23   52 1
  50   23   53 1
  51   24   54 1
  52   24   55 1
  53   24   56 1
  54   25   26 1
  55   25   28 1
  56   25   29 1
  57   25   27 1
  58   26   57 1
  59   26   58 1
  60   26   59 1
  61   27   60 1
  62   28   61 1
  63   28   62 1
  64   28   63 1
  65   29   64 1
  66   29   65 1
  67   29   66 1

#	End of record

