#	Name: ASD01916618
#	Creating user name:	WinNT
#	Creation time:	15. 06. 2019 20:07

#	Modifying user name:	WinNT
#	Modification time:	15. 06. 2019 20:07

#	Program:	/corina/corina34_cracker 3.40 0067  02.08.2006

@<TRIPOS>MOLECULE
ASD01916618
  25   26    0    0    0
SMALL
NO_CHARGES


@<TRIPOS>ATOM
   1 O1            -0.0161     1.3381     0.0094 O.3     
   2 C2             0.0021    -0.0041     0.0020 C.2     
   3 N3             1.2264    -0.4381    -0.0120 N.2     
   4 C4             2.0701     0.6294    -0.0143 C.ar    
   5 C5             1.2618     1.7767    -0.0004 C.ar    
   6 C6             1.8478     3.0330     0.0003 C.ar    
   7 C7             3.2223     3.1501    -0.0126 C.ar    
   8 C8             4.0244     2.0189    -0.0268 C.ar    
   9 C9             3.4591     0.7631    -0.0276 C.ar    
  10 C10            5.5242     2.1648    -0.0417 C.3     
  11 C11           -1.2228    -0.8820     0.0098 C.3     
  12 C12           -1.6230    -1.1863     1.4548 C.3     
  13 C13           -2.8194    -2.0439     1.4624 C.1     
  14 C14           -3.7735    -2.7278     1.4684 C.1     
  15 H15            1.2295     3.9185     0.0106 H       
  16 H16            3.6769     4.1298    -0.0120 H       
  17 H17            4.0881    -0.1147    -0.0379 H       
  18 H18            5.8966     2.1947     0.9822 H       
  19 H19            5.9666     1.3168    -0.5646 H       
  20 H20            5.7944     3.0884    -0.5537 H       
  21 H21           -2.0416    -0.3677    -0.4934 H       
  22 H22           -1.0047    -1.8144    -0.5109 H       
  23 H23           -0.8041    -1.7006     1.9580 H       
  24 H24           -1.8410    -0.2539     1.9755 H       
  25 H25           -4.6269    -3.3395     1.4738 H       
@<TRIPOS>BOND
   1    1    2 1
   2    1    5 1
   3    2    3 2
   4    2   11 1
   5    3    4 1
   6    4    5 ar
   7    4    9 ar
   8    5    6 ar
   9    6    7 ar
  10    6   15 1
  11    7    8 ar
  12    7   16 1
  13    8    9 ar
  14    8   10 1
  15    9   17 1
  16   10   18 1
  17   10   19 1
  18   10   20 1
  19   11   12 1
  20   11   21 1
  21   11   22 1
  22   12   13 1
  23   12   23 1
  24   12   24 1
  25   13   14 3
  26   14   25 1

#	End of record

