#	Name: ASD03740273
#	Creating user name:	WinNT
#	Creation time:	15. 06. 2019 20:47

#	Modifying user name:	WinNT
#	Modification time:	15. 06. 2019 20:47

#	Program:	/corina/corina34_cracker 3.40 0067  02.08.2006

@<TRIPOS>MOLECULE
ASD03740273
  48   52    0    0    0
SMALL
NO_CHARGES


@<TRIPOS>ATOM
   1 C1            -0.0204     1.4691     0.0072 C.2     
   2 C2            -0.0031    -0.0041    -0.0041 C.2     
   3 N3            -0.4062    -0.6433     1.1329 N.pl3   
   4 C4            -0.5070    -2.8447     0.1528 C.ar    
   5 C5            -0.8308    -1.9678     1.1822 C.ar    
   6 C6            -1.5808    -2.4273     2.2584 C.ar    
   7 C7            -1.9943    -3.7440     2.2977 C.ar    
   8 C8            -1.6657    -4.6099     1.2705 C.ar    
   9 C9            -0.9195    -4.1579     0.1959 C.ar    
  10 S10            0.4330    -2.2388    -1.2094 S.o2    
  11 N11            0.3888    -0.5853    -1.0946 N.am    
  12 O12            1.7809    -2.6219    -0.9739 O.2     
  13 O13           -0.2865    -2.5860    -2.3846 O.2     
  14 N14           -1.2986     3.5083     0.1216 N.am    
  15 C15            2.1677     5.7994    -0.1383 C.ar    
  16 C16            0.9262     6.4146    -0.0305 C.ar    
  17 C17           -0.2258     5.6628     0.0547 C.ar    
  18 C18           -0.1527     4.2742     0.0351 C.ar    
  19 C19            1.1032     3.6494    -0.0736 C.ar    
  20 C20            2.2637     4.4245    -0.1602 C.ar    
  21 C21            1.1713     2.1841    -0.0886 C.2     
  22 O22            2.3570     1.5458    -0.1920 O.3     
  23 C23           -2.5980     4.1755     0.2342 C.3     
  24 C24           -3.1679     4.4214    -1.1642 C.3     
  25 C25           -4.5250     5.1182    -1.0465 C.3     
  26 C26           -1.2494     2.1659     0.1096 C.2     
  27 O27           -2.2872     1.5323     0.1882 O.2     
  28 C28           -5.2080     5.5580    -2.3430 C.3     
  29 C29           -5.7535     4.3632    -1.5582 C.3     
  30 F30            3.2862     6.5527    -0.2212 F       
  31 H31           -0.3957    -0.1405     1.9624 H       
  32 H32           -1.8396    -1.7552     3.0633 H       
  33 H33           -2.5769    -4.0996     3.1346 H       
  34 H34           -1.9911    -5.6390     1.3070 H       
  35 H35           -0.6623    -4.8329    -0.6070 H       
  36 H36            0.8635     7.4926    -0.0140 H       
  37 H37           -1.1850     6.1520     0.1383 H       
  38 H38            3.2296     3.9487    -0.2441 H       
  39 H39            2.2941     0.5840    -0.1131 H       
  40 H40           -3.2829     3.5438     0.7998 H       
  41 H41           -2.4737     5.1284     0.7487 H       
  42 H42           -2.4830     5.0531    -1.7298 H       
  43 H43           -3.2922     3.4685    -1.6786 H       
  44 H44           -4.6531     5.7530    -0.1698 H       
  45 H45           -5.7858     6.4819    -2.3191 H       
  46 H46           -4.6906     5.3510    -3.2798 H       
  47 H47           -5.5949     3.3701    -1.9786 H       
  48 H48           -6.6900     4.5011    -1.0179 H       
@<TRIPOS>BOND
   1    1    2 1
   2    1   21 2
   3    1   26 1
   4    2    3 1
   5    2   11 2
   6    3    5 1
   7    3   31 1
   8    4    5 ar
   9    4    9 ar
  10    4   10 1
  11    5    6 ar
  12    6    7 ar
  13    6   32 1
  14    7    8 ar
  15    7   33 1
  16    8    9 ar
  17    8   34 1
  18    9   35 1
  19   10   11 am
  20   10   12 2
  21   10   13 2
  22   14   18 1
  23   14   23 1
  24   14   26 am
  25   15   16 ar
  26   15   20 ar
  27   15   30 1
  28   16   17 ar
  29   16   36 1
  30   17   18 ar
  31   17   37 1
  32   18   19 ar
  33   19   20 ar
  34   19   21 1
  35   20   38 1
  36   21   22 1
  37   22   39 1
  38   23   24 1
  39   23   40 1
  40   23   41 1
  41   24   25 1
  42   24   42 1
  43   24   43 1
  44   25   28 1
  45   25   29 1
  46   25   44 1
  47   26   27 2
  48   28   29 1
  49   28   45 1
  50   28   46 1
  51   29   47 1
  52   29   48 1

#	End of record

