#	Name: ASD07930382
#	Creating user name:	WinNT
#	Creation time:	15. 06. 2019 21:12

#	Modifying user name:	WinNT
#	Modification time:	15. 06. 2019 21:12

#	Program:	/corina/corina34_cracker 3.40 0067  02.08.2006

@<TRIPOS>MOLECULE
ASD07930382
  49   50    0    0    0
SMALL
NO_CHARGES


@<TRIPOS>ATOM
   1 N1            -0.0057     1.4467     0.2176 N.pl3   
   2 C2             0.0021    -0.0041     0.0020 C.3     
   3 C3             0.8306    -0.6738     1.1076 C.3     
   4 N4             2.1540     1.7079     1.1108 N.am    
   5 C5             1.1735     2.1400     0.2471 C.2     
   6 C6            -1.4106    -0.5271     0.0446 C.ar    
   7 C7            -2.1691    -0.3774     1.1931 C.ar    
   8 C8             2.8670     2.6372     1.9906 C.3     
   9 C9             0.6227    -0.3150    -1.3614 C.3     
  10 C10           -3.2516    -1.6318    -1.0250 C.ar    
  11 C11           -4.0094    -1.4862     0.1293 C.ar    
  12 C12           -3.4683    -0.8573     1.2350 C.ar    
  13 C13           -1.9494    -1.1501    -1.0640 C.ar    
  14 N14           -3.7965    -2.2679    -2.1446 N.pl3   
  15 F15           -1.6417     0.2370     2.2746 F       
  16 Cl16          -4.4166    -0.6693     2.6769 Cl      
  17 N17            1.3655     3.1937    -0.5315 N.2     
  18 O18            0.5934     4.6699    -2.1573 O.3     
  19 C19           -0.4823     5.0431    -3.0209 C.3     
  20 C20           -1.7191     5.3715    -2.1823 C.3     
  21 C21           -0.0781     6.2726    -3.8369 C.3     
  22 C22           -0.8012     3.8847    -3.9682 C.3     
  23 C23            0.3977     3.5960    -1.3639 C.2     
  24 O24           -0.6591     2.9932    -1.4052 O.2     
  25 S25            2.4900     0.0758     1.1072 S.o2    
  26 O26            3.1488    -0.1565     2.3446 O.2     
  27 O27            3.1459    -0.1516    -0.1327 O.2     
  28 H28           -0.8469     1.9151     0.3352 H       
  29 H29            0.3538    -0.5112     2.0742 H       
  30 H30            0.9100    -1.7430     0.9112 H       
  31 H31            2.4921     3.6483     1.8315 H       
  32 H32            2.7065     2.3495     3.0296 H       
  33 H33            3.9330     2.6054     1.7653 H       
  34 H34            1.6452     0.0616    -1.3896 H       
  35 H35            0.6281    -1.3933    -1.5208 H       
  36 H36            0.0370     0.1652    -2.1453 H       
  37 H37           -5.0207    -1.8637     0.1631 H       
  38 H38           -1.3585    -1.2625    -1.9611 H       
  39 H39           -4.7045    -2.6079    -2.1152 H       
  40 H40           -3.2665    -2.3693    -2.9506 H       
  41 H41           -1.4919     6.1967    -1.5075 H       
  42 H42           -2.5396     5.6561    -2.8410 H       
  43 H43           -2.0070     4.4955    -1.6010 H       
  44 H44            0.8030     6.0386    -4.4343 H       
  45 H45           -0.8986     6.5573    -4.4956 H       
  46 H46            0.1491     7.0979    -3.1620 H       
  47 H47           -1.0891     3.0087    -3.3869 H       
  48 H48           -1.6217     4.1693    -4.6269 H       
  49 H49            0.0799     3.6507    -4.5656 H       
@<TRIPOS>BOND
   1    1    2 1
   2    1    5 1
   3    1   28 1
   4    2    3 1
   5    2    6 1
   6    2    9 1
   7    3   25 1
   8    3   29 1
   9    3   30 1
  10    4    5 1
  11    4    8 1
  12    4   25 am
  13    5   17 2
  14    6   13 ar
  15    6    7 ar
  16    7   15 1
  17    7   12 ar
  18    8   31 1
  19    8   32 1
  20    8   33 1
  21    9   34 1
  22    9   35 1
  23    9   36 1
  24   10   11 ar
  25   10   14 1
  26   10   13 ar
  27   11   12 ar
  28   11   37 1
  29   12   16 1
  30   13   38 1
  31   14   39 1
  32   14   40 1
  33   17   23 1
  34   18   19 1
  35   18   23 1
  36   19   20 1
  37   19   21 1
  38   19   22 1
  39   20   41 1
  40   20   42 1
  41   20   43 1
  42   21   44 1
  43   21   45 1
  44   21   46 1
  45   22   47 1
  46   22   48 1
  47   22   49 1
  48   23   24 2
  49   25   26 2
  50   25   27 2

#	End of record

