#	Name: ASD01200287
#	Creating user name:	WinNT
#	Creation time:	15. 06. 2019 19:08

#	Modifying user name:	WinNT
#	Modification time:	15. 06. 2019 19:08

#	Program:	/corina/corina34_cracker 3.40 0067  02.08.2006

@<TRIPOS>MOLECULE
ASD01200287
  57   59    0    0    0
SMALL
NO_CHARGES


@<TRIPOS>ATOM
   1 C1            -0.0863    -0.1737     1.1093 C.2     
   2 C2             0.1015    -1.4685     1.2509 C.2     
   3 N3             1.3623    -2.0191     1.1796 N.pl3   
   4 C4             2.4414    -1.0460     0.9368 C.3     
   5 S5             1.5208     0.5350     0.8408 S.3     
   6 N6             3.3904    -1.0301     2.0527 N.am    
   7 C7             4.5956    -0.4453     1.9041 C.2     
   8 C8             5.5718    -0.4289     3.0520 C.3     
   9 C9             6.8522     0.2902     2.6225 C.3     
  10 O10            4.8944     0.0677     0.8466 O.2     
  11 C11            7.8284     0.3066     3.7704 C.2     
  12 N12            9.0549     0.8400     3.6044 N.am    
  13 O13            7.5104    -0.1602     4.8436 O.2     
  14 C14            9.9653     0.9529     4.7466 C.3     
  15 C15            9.4777     1.3070     2.2817 C.3     
  16 C16            9.2339     2.7900     2.1710 C.ar    
  17 C17           10.7994    -0.2980     4.8497 C.2     
  18 O18           10.6482    -1.1955     4.0481 O.2     
  19 N19           11.7133    -0.4194     5.8328 N.am    
  20 C20           12.5240    -1.6355     5.9331 C.3     
  21 C21           13.8458    -1.3294     6.6590 C.3     
  22 C22           13.8677    -2.2107     7.9249 C.3     
  23 C23           12.9172    -3.3858     7.5861 C.3     
  24 C24           11.7888    -2.6922     6.7832 C.3     
  25 C25           10.1795     3.6824     2.6407 C.ar    
  26 C26            9.9573     5.0426     2.5392 C.ar    
  27 C27            8.7869     5.5115     1.9669 C.ar    
  28 C28            7.8406     4.6168     1.4968 C.ar    
  29 C29            8.0674     3.2571     1.5945 C.ar    
  30 F30            8.5684     6.8410     1.8676 F       
  31 H31           -1.0290     0.3522     1.1446 H       
  32 H32           -0.7484    -2.1113     1.4265 H       
  33 H33            1.5262    -2.9697     1.2812 H       
  34 H34            2.9500    -1.2570    -0.0039 H       
  35 H35            3.1514    -1.4404     2.8986 H       
  36 H36            5.1280     0.0942     3.8990 H       
  37 H37            5.8097    -1.4526     3.3414 H       
  38 H38            7.2960    -0.2330     1.7755 H       
  39 H39            6.6143     1.3138     2.3331 H       
  40 H40           10.6183     1.8145     4.6070 H       
  41 H41            9.3865     1.0802     5.6614 H       
  42 H42           10.5397     1.1023     2.1465 H       
  43 H43            8.9066     0.7865     1.5130 H       
  44 H44           11.8342     0.2984     6.4740 H       
  45 H45           12.7275    -2.0314     4.9381 H       
  46 H46           14.6907    -1.5775     6.0167 H       
  47 H47           13.8840    -0.2760     6.9367 H       
  48 H48           14.8758    -2.5785     8.1164 H       
  49 H49           13.4943    -1.6536     8.7842 H       
  50 H50           13.4261    -4.1299     6.9734 H       
  51 H51           12.5222    -3.8378     8.4960 H       
  52 H52           11.0797    -2.2128     7.4581 H       
  53 H53           11.2798    -3.4113     6.1414 H       
  54 H54           11.0922     3.3164     3.0874 H       
  55 H55           10.6960     5.7396     2.9066 H       
  56 H56            6.9273     4.9814     1.0502 H       
  57 H57            7.3294     2.5590     1.2279 H       
@<TRIPOS>BOND
   1    1    2 2
   2    1    5 1
   3    1   31 1
   4    2    3 1
   5    2   32 1
   6    3    4 1
   7    3   33 1
   8    4    5 1
   9    4    6 1
  10    4   34 1
  11    6    7 am
  12    6   35 1
  13    7    8 1
  14    7   10 2
  15    8    9 1
  16    8   36 1
  17    8   37 1
  18    9   11 1
  19    9   38 1
  20    9   39 1
  21   11   12 am
  22   11   13 2
  23   12   14 1
  24   12   15 1
  25   14   17 1
  26   14   40 1
  27   14   41 1
  28   15   16 1
  29   15   42 1
  30   15   43 1
  31   16   25 ar
  32   16   29 ar
  33   17   18 2
  34   17   19 am
  35   19   20 1
  36   19   44 1
  37   20   21 1
  38   20   24 1
  39   20   45 1
  40   21   22 1
  41   21   46 1
  42   21   47 1
  43   22   23 1
  44   22   48 1
  45   22   49 1
  46   23   24 1
  47   23   50 1
  48   23   51 1
  49   24   52 1
  50   24   53 1
  51   25   26 ar
  52   25   54 1
  53   26   27 ar
  54   26   55 1
  55   27   28 ar
  56   27   30 1
  57   28   29 ar
  58   28   56 1
  59   29   57 1

#	End of record

