#	Name: ASD02408317
#	Creating user name:	WinNT
#	Creation time:	15. 06. 2019 20:21

#	Modifying user name:	WinNT
#	Modification time:	15. 06. 2019 20:21

#	Program:	/corina/corina34_cracker 3.40 0067  02.08.2006

@<TRIPOS>MOLECULE
ASD02408317
  44   47    0    0    0
SMALL
NO_CHARGES


@<TRIPOS>ATOM
   1 C1             0.0926     0.9997    -0.1361 C.2     
   2 C2             0.3627    -0.3274    -0.2173 C.2     
   3 N3             1.6382    -0.7766    -0.2158 N.pl3   
   4 N4             2.6572    -0.0026    -0.1399 N.2     
   5 C5             2.5372     1.3047    -0.0568 C.2     
   6 C6             1.1877     1.8929    -0.0505 C.2     
   7 C7             1.8566    -2.1556    -0.3008 C.ar    
   8 C8             0.7846    -3.0361    -0.2270 C.ar    
   9 C9             1.0037    -4.3970    -0.3117 C.ar    
  10 C10            2.2886    -4.8835    -0.4699 C.ar    
  11 C11            3.3581    -4.0098    -0.5433 C.ar    
  12 C12            3.1454    -2.6475    -0.4650 C.ar    
  13 C13            3.7338     2.1662     0.0292 C.2     
  14 N14            4.8723     1.9061     0.7390 N.pl3   
  15 N15            5.7504     2.9797     0.5453 N.2     
  16 C16            5.1787     3.8541    -0.2438 C.2     
  17 C17            3.9149     3.3805    -0.5959 C.2     
  18 C18            5.1170     0.7695     1.5202 C.ar    
  19 O19            1.0198     3.1008     0.0246 O.2     
  20 C20            6.3543     0.1413     1.4661 C.ar    
  21 C21            4.1248     0.2719     2.3546 C.ar    
  22 C22            4.3692    -0.8490     3.1236 C.ar    
  23 C23            5.6004    -1.4757     3.0632 C.ar    
  24 C24            6.5924    -0.9793     2.2376 C.ar    
  25 C25            2.5238    -6.3692    -0.5620 C.3     
  26 F26            3.4312    -6.1333    -2.7634 F       
  27 F27            2.6700    -8.1863    -2.1117 F       
  28 C28            2.4516    -6.8072    -2.0262 C.3     
  29 F29            1.1875    -6.5023    -2.5423 F       
  30 H30           -0.9244     1.3631    -0.1410 H       
  31 H31           -0.4514    -1.0340    -0.2837 H       
  32 H32           -0.2190    -2.6568    -0.1031 H       
  33 H33            0.1708    -5.0820    -0.2541 H       
  34 H34            4.3602    -4.3931    -0.6665 H       
  35 H35            3.9810    -1.9657    -0.5224 H       
  36 H36            5.6154     4.7859    -0.5716 H       
  37 H37            3.2033     3.8794    -1.2371 H       
  38 H38            7.1293     0.5283     0.8212 H       
  39 H39            3.1631     0.7611     2.4024 H       
  40 H40            3.5980    -1.2362     3.7730 H       
  41 H41            5.7890    -2.3521     3.6655 H       
  42 H42            7.5528    -1.4711     2.1923 H       
  43 H43            3.5087    -6.6067    -0.1599 H       
  44 H44            1.7606    -6.8942     0.0124 H       
@<TRIPOS>BOND
   1    1    2 2
   2    1    6 1
   3    1   30 1
   4    2    3 1
   5    2   31 1
   6    3    4 1
   7    3    7 1
   8    4    5 2
   9    5    6 1
  10    5   13 1
  11    6   19 2
  12    7    8 ar
  13    7   12 ar
  14    8    9 ar
  15    8   32 1
  16    9   10 ar
  17    9   33 1
  18   10   11 ar
  19   10   25 1
  20   11   12 ar
  21   11   34 1
  22   12   35 1
  23   13   14 1
  24   13   17 2
  25   14   15 1
  26   14   18 1
  27   15   16 2
  28   16   17 1
  29   16   36 1
  30   17   37 1
  31   18   20 ar
  32   18   21 ar
  33   20   24 ar
  34   20   38 1
  35   21   22 ar
  36   21   39 1
  37   22   23 ar
  38   22   40 1
  39   23   24 ar
  40   23   41 1
  41   24   42 1
  42   25   28 1
  43   25   43 1
  44   25   44 1
  45   26   28 1
  46   27   28 1
  47   28   29 1

#	End of record

