#	Name: ASD01913802
#	Creating user name:	WinNT
#	Creation time:	15. 06. 2019 20:02

#	Modifying user name:	WinNT
#	Modification time:	15. 06. 2019 20:02

#	Program:	/corina/corina34_cracker 3.40 0067  02.08.2006

@<TRIPOS>MOLECULE
ASD01913802
  44   46    0    0    0
SMALL
NO_CHARGES


@<TRIPOS>ATOM
   1 C1            -0.0094     1.3638    -0.1788 C.ar    
   2 C2            -0.0009     0.0021     0.0676 C.ar    
   3 C3             1.1932    -0.6594     0.2949 C.ar    
   4 C4             2.3845     0.0352     0.2770 C.ar    
   5 C5             2.3839     1.4104     0.0285 C.ar    
   6 C6             1.1741     2.0716    -0.1998 C.ar    
   7 C7             3.6168     2.1385     0.0088 C.1     
   8 C8             4.6275     2.7355    -0.0074 C.1     
   9 C9             5.8604     3.4636    -0.0272 C.ar    
  10 C10            5.8681     4.8443    -0.2759 C.ar    
  11 C11            8.2483     4.7810    -0.0487 C.ar    
  12 N12            8.2079     3.4786     0.1890 N.ar    
  13 C13            7.0729     2.8112     0.2066 C.ar    
  14 C14            7.0817     5.5021    -0.2848 C.ar    
  15 N15            9.4756     5.4396    -0.0561 N.am    
  16 C16            9.6468     6.7686    -0.0560 C.2     
  17 O17           10.9293     7.1489    -0.0632 O.3     
  18 C18           11.7855     5.9701    -0.0693 C.3     
  19 C19           10.7951     4.7897    -0.0589 C.3     
  20 C20           12.6488     5.9407    -1.3321 C.3     
  21 C21           12.6637     5.9385     1.1832 C.3     
  22 C22           10.9857     3.9392     1.1986 C.3     
  23 O23            8.7217     7.5563    -0.0498 O.2     
  24 C24           10.9633     3.9359    -1.3174 C.3     
  25 H25           -0.9447     1.8727    -0.3595 H       
  26 H26           -0.9307    -0.5470     0.0828 H       
  27 H27            1.1920    -1.7221     0.4872 H       
  28 H28            3.3156    -0.4823     0.4550 H       
  29 H29            1.1661     3.1342    -0.3929 H       
  30 H30            4.9474     5.3792    -0.4564 H       
  31 H31            7.0796     1.7494     0.4041 H       
  32 H32            7.1254     6.5647    -0.4732 H       
  33 H33           13.2930     6.8197    -1.3524 H       
  34 H34           13.2629     5.0401    -1.3316 H       
  35 H35           12.0056     5.9413    -2.2121 H       
  36 H36           12.0309     5.9376     2.0707 H       
  37 H37           13.2777     5.0380     1.1739 H       
  38 H38           13.3081     6.8175     1.1974 H       
  39 H39           10.8128     4.5535     2.0823 H       
  40 H40           10.2775     3.1108     1.1877 H       
  41 H41           12.0027     3.5476     1.2217 H       
  42 H42           11.9797     3.5442    -1.3575 H       
  43 H43           10.2554     3.1075    -1.2917 H       
  44 H44           10.7747     4.5478    -2.1994 H       
@<TRIPOS>BOND
   1    1    2 ar
   2    1    6 ar
   3    1   25 1
   4    2    3 ar
   5    2   26 1
   6    3    4 ar
   7    3   27 1
   8    4    5 ar
   9    4   28 1
  10    5    6 ar
  11    5    7 1
  12    6   29 1
  13    7    8 3
  14    8    9 1
  15    9   10 ar
  16    9   13 ar
  17   10   14 ar
  18   10   30 1
  19   11   12 ar
  20   11   15 1
  21   11   14 ar
  22   12   13 ar
  23   13   31 1
  24   14   32 1
  25   15   16 am
  26   15   19 1
  27   16   17 1
  28   16   23 2
  29   17   18 1
  30   18   19 1
  31   18   20 1
  32   18   21 1
  33   19   22 1
  34   19   24 1
  35   20   33 1
  36   20   34 1
  37   20   35 1
  38   21   36 1
  39   21   37 1
  40   21   38 1
  41   22   39 1
  42   22   40 1
  43   22   41 1
  44   24   42 1
  45   24   43 1
  46   24   44 1

#	End of record

