#	Name: ASD07300828
#	Creating user name:	WinNT
#	Creation time:	15. 06. 2019 21:10

#	Modifying user name:	WinNT
#	Modification time:	15. 06. 2019 21:10

#	Program:	/corina/corina34_cracker 3.40 0067  02.08.2006

@<TRIPOS>MOLECULE
ASD07300828
  46   49    0    0    0
SMALL
NO_CHARGES


@<TRIPOS>ATOM
   1 C1            -0.0172     1.4140     0.0098 C.2     
   2 C2             0.0021    -0.0041     0.0020 C.2     
   3 N3             1.1796     2.0888     0.0020 N.pl3   
   4 N4             1.1598    -0.6390    -0.0124 N.2     
   5 C5             2.3138     0.0265    -0.0199 C.2     
   6 C6             2.3467     1.3784    -0.0130 C.2     
   7 N7            -0.9946     2.3042     0.0292 N.2     
   8 C8            -0.4779     3.5304     0.0285 C.2     
   9 C9             0.8861     3.4254     0.0125 C.2     
  10 C10           -2.4705    -2.8374     0.0118 C.ar    
  11 C11           -1.2650    -2.1662     0.0030 C.ar    
  12 C12           -1.2674    -0.7674     0.0105 C.ar    
  13 C13           -2.5017    -0.1094     0.0268 C.ar    
  14 C14           -3.6597    -0.8596     0.0347 C.ar    
  15 N15           -3.6129    -2.1779     0.0271 N.ar    
  16 C16           -1.2623     4.8170     0.0473 C.3     
  17 C17            2.9699     4.5127     0.8482 C.ar    
  18 C18            1.8561     4.5409     0.0094 C.ar    
  19 C19            1.6706     5.6422    -0.8365 C.ar    
  20 C20            2.6047     6.6596    -0.8035 C.ar    
  21 C21            3.6888     6.5588     0.0602 C.ar    
  22 N22            3.8363     5.5055     0.8472 N.ar    
  23 O23            4.6097     7.5549     0.0966 O.3     
  24 C24            5.7021     7.3957     1.0040 C.3     
  25 C25            6.6287     8.6091     0.9045 C.3     
  26 O26            5.9346     9.7763     1.3495 O.3     
  27 C27            6.7150    10.9721     1.2967 C.3     
  28 H28            3.2423    -0.5250    -0.0314 H       
  29 H29            3.2946     1.8961    -0.0189 H       
  30 H30           -2.4790    -3.9173     0.0016 H       
  31 H31           -0.3335    -2.7127    -0.0091 H       
  32 H32           -2.5475     0.9696     0.0334 H       
  33 H33           -4.6175    -0.3607     0.0476 H       
  34 H34           -1.4359     5.1217     1.0794 H       
  35 H35           -0.6994     5.5934    -0.4709 H       
  36 H36           -2.2190     4.6666    -0.4529 H       
  37 H37            3.1214     3.6713     1.5081 H       
  38 H38            0.8187     5.6944    -1.4983 H       
  39 H39            2.4938     7.5235    -1.4420 H       
  40 H40            5.3201     7.3127     2.0215 H       
  41 H41            6.2572     6.4928     0.7495 H       
  42 H42            7.5067     8.4480     1.5299 H       
  43 H43            6.9402     8.7444    -0.1313 H       
  44 H44            7.5949    10.8601     1.9303 H       
  45 H45            7.0283    11.1565     0.2691 H       
  46 H46            6.1172    11.8121     1.6505 H       
@<TRIPOS>BOND
   1    1    2 1
   2    1    3 1
   3    1    7 2
   4    2    4 2
   5    2   12 1
   6    3    6 1
   7    3    9 1
   8    4    5 1
   9    5    6 2
  10    5   28 1
  11    6   29 1
  12    7    8 1
  13    8    9 2
  14    8   16 1
  15    9   18 1
  16   10   11 ar
  17   10   15 ar
  18   10   30 1
  19   11   12 ar
  20   11   31 1
  21   12   13 ar
  22   13   14 ar
  23   13   32 1
  24   14   15 ar
  25   14   33 1
  26   16   34 1
  27   16   35 1
  28   16   36 1
  29   17   18 ar
  30   17   22 ar
  31   17   37 1
  32   18   19 ar
  33   19   20 ar
  34   19   38 1
  35   20   21 ar
  36   20   39 1
  37   21   22 ar
  38   21   23 1
  39   23   24 1
  40   24   25 1
  41   24   40 1
  42   24   41 1
  43   25   26 1
  44   25   42 1
  45   25   43 1
  46   26   27 1
  47   27   44 1
  48   27   45 1
  49   27   46 1

#	End of record

