#	Name: ASD02039013
#	Creating user name:	WinNT
#	Creation time:	15. 06. 2019 20:17

#	Modifying user name:	WinNT
#	Modification time:	15. 06. 2019 20:17

#	Program:	/corina/corina34_cracker 3.40 0067  02.08.2006

@<TRIPOS>MOLECULE
ASD02039013
  39   42    0    0    0
SMALL
NO_CHARGES


@<TRIPOS>ATOM
   1 N1             0.0026     1.2785    -0.2070 N.2     
   2 N2             0.0318    -0.0041    -0.3030 N.2     
   3 C3             1.2281     1.7343    -0.1151 C.2     
   4 O4             2.0535     0.6719    -0.1572 O.3     
   5 C5             1.2659    -0.4146    -0.2765 C.2     
   6 N6             1.6033     3.0608     0.0032 N.pl3   
   7 C7             0.6407     4.0702    -0.0872 C.ar    
   8 C8             1.7303    -1.8456    -0.3635 C.3     
   9 O9             1.9398    -2.1960    -1.7330 O.3     
  10 C10            2.3634    -3.4625    -1.9882 C.ar    
  11 C11            2.5844    -3.8635    -3.2907 C.ar    
  12 C12            2.5778    -4.3470    -0.9342 C.ar    
  13 C13            3.0070    -5.6339    -1.1739 C.ar    
  14 C14            3.2302    -6.0601    -2.4787 C.ar    
  15 C15            3.0201    -5.1675    -3.5468 C.ar    
  16 C16            0.8207     5.2669     0.5949 C.ar    
  17 C17           -0.4954     3.8811    -0.8638 C.ar    
  18 C18           -1.4446     4.8804    -0.9509 C.ar    
  19 C19           -1.2650     6.0683    -0.2660 C.ar    
  20 C20           -0.1324     6.2621     0.5035 C.ar    
  21 N21            3.6598    -7.3455    -2.7396 N.am    
  22 C22            3.8759    -7.7600    -4.0002 C.2     
  23 C23            3.6752    -6.9058    -5.1055 C.2     
  24 O24            4.2551    -8.9023    -4.1932 O.2     
  25 C25            3.2585    -5.6295    -4.9155 C.2     
  26 H26            2.5345     3.2902     0.1488 H       
  27 H27            2.6640    -1.9587     0.1874 H       
  28 H28            0.9727    -2.5003     0.0672 H       
  29 H29            2.4215    -3.1748    -4.1065 H       
  30 H30            2.4063    -4.0209     0.0810 H       
  31 H31            3.1704    -6.3114    -0.3488 H       
  32 H32            1.7049     5.4186     1.1963 H       
  33 H33           -0.6361     2.9537    -1.3992 H       
  34 H34           -2.3279     4.7342    -1.5548 H       
  35 H35           -2.0086     6.8484    -0.3361 H       
  36 H36            0.0046     7.1908     1.0373 H       
  37 H37            3.8083    -7.9587    -2.0028 H       
  38 H38            3.8583    -7.2687    -6.1061 H       
  39 H39            3.1021    -4.9694    -5.7559 H       
@<TRIPOS>BOND
   1    1    2 1
   2    1    3 2
   3    2    5 2
   4    3    4 1
   5    3    6 1
   6    4    5 1
   7    5    8 1
   8    6    7 1
   9    6   26 1
  10    7   16 ar
  11    7   17 ar
  12    8    9 1
  13    8   27 1
  14    8   28 1
  15    9   10 1
  16   10   11 ar
  17   10   12 ar
  18   11   15 ar
  19   11   29 1
  20   12   13 ar
  21   12   30 1
  22   13   14 ar
  23   13   31 1
  24   14   15 ar
  25   14   21 1
  26   15   25 1
  27   16   20 ar
  28   16   32 1
  29   17   18 ar
  30   17   33 1
  31   18   19 ar
  32   18   34 1
  33   19   20 ar
  34   19   35 1
  35   20   36 1
  36   21   22 am
  37   21   37 1
  38   22   23 1
  39   22   24 2
  40   23   25 2
  41   23   38 1
  42   25   39 1

#	End of record

