#	Name: ASD03240472
#	Creating user name:	WinNT
#	Creation time:	15. 06. 2019 20:35

#	Modifying user name:	WinNT
#	Modification time:	15. 06. 2019 20:35

#	Program:	/corina/corina34_cracker 3.40 0067  02.08.2006

@<TRIPOS>MOLECULE
ASD03240472
  51   54    0    0    0
SMALL
NO_CHARGES


@<TRIPOS>ATOM
   1 C1            -0.0281     1.3253    -0.5287 C.ar    
   2 C2            -0.9513     4.0393     0.5750 C.ar    
   3 C3            -1.6588     2.8530     0.5025 C.ar    
   4 C4            -1.4156     1.9026    -0.6415 C.3     
   5 C5            -1.1702     4.9134     1.6206 C.ar    
   6 C6            -2.1056     4.5990     2.6038 C.ar    
   7 C7            -2.8149     3.4026     2.5262 C.ar    
   8 C8            -2.5883     2.5357     1.4763 C.ar    
   9 C9            -2.3448     5.5352     3.7311 C.2     
  10 C10           -3.2263     5.3537     4.7566 C.2     
  11 N11           -3.1380     6.4288     5.5654 N.pl3   
  12 N12           -2.1803     7.3000     5.0322 N.2     
  13 C13           -1.6988     6.7692     3.9395 C.2     
  14 C14            0.1397    -0.0177    -0.2460 C.ar    
  15 C15           -1.5487     2.6551    -1.9669 C.3     
  16 C16           -1.4255     1.6674    -3.1288 C.3     
  17 C17            1.0748     2.1385    -0.7137 C.ar    
  18 C18            2.3477     1.6107    -0.6165 C.ar    
  19 C19            2.5189     0.2632    -0.3330 C.ar    
  20 C20            1.4104    -0.5506    -0.1477 C.ar    
  21 O21            3.7699    -0.2584    -0.2369 O.3     
  22 N22           -1.5533     2.3900    -4.4014 N.3     
  23 C23            4.8248     0.5683    -0.4607 C.ar    
  24 C24            5.2971     1.3838     0.5578 C.ar    
  25 C25            5.4352     0.5945    -1.7066 C.ar    
  26 C26            6.5073     1.4360    -1.9315 C.ar    
  27 C27            6.9724     2.2517    -0.9165 C.ar    
  28 C28            6.3696     2.2234     0.3276 C.ar    
  29 H29           -0.2232     4.2801    -0.1854 H       
  30 H30           -2.1485     1.0965    -0.6062 H       
  31 H31           -0.6171     5.8393     1.6765 H       
  32 H32           -3.5412     3.1541     3.2859 H       
  33 H33           -3.1381     1.6081     1.4150 H       
  34 H34           -3.8768     4.5029     4.8954 H       
  35 H35           -3.6499     6.5739     6.3764 H       
  36 H36           -0.9424     7.2044     3.3032 H       
  37 H37           -0.7234    -0.6506    -0.1015 H       
  38 H38           -2.5205     3.1469    -2.0095 H       
  39 H39           -0.7594     3.4032    -2.0408 H       
  40 H40           -0.4537     1.1756    -3.0862 H       
  41 H41           -2.2148     0.9193    -3.0550 H       
  42 H42            0.9410     3.1871    -0.9347 H       
  43 H43            3.2088     2.2462    -0.7615 H       
  44 H44            1.5410    -1.5996     0.0734 H       
  45 H45           -0.8728     3.1321    -4.4658 H       
  46 H46           -1.4754     1.7590    -5.1849 H       
  47 H47            4.8264     1.3623     1.5296 H       
  48 H48            5.0725    -0.0427    -2.4996 H       
  49 H49            6.9830     1.4564    -2.9009 H       
  50 H50            7.8108     2.9088    -1.0944 H       
  51 H51            6.7345     2.8618     1.1186 H       
@<TRIPOS>BOND
   1    1   14 ar
   2    1   17 ar
   3    1    4 1
   4    2    3 ar
   5    2    5 ar
   6    2   29 1
   7    3    4 1
   8    3    8 ar
   9    4   15 1
  10    4   30 1
  11    5    6 ar
  12    5   31 1
  13    6    7 ar
  14    6    9 1
  15    7    8 ar
  16    7   32 1
  17    8   33 1
  18    9   10 2
  19    9   13 1
  20   10   11 1
  21   10   34 1
  22   11   12 1
  23   11   35 1
  24   12   13 2
  25   13   36 1
  26   14   20 ar
  27   14   37 1
  28   15   16 1
  29   15   38 1
  30   15   39 1
  31   16   22 1
  32   16   40 1
  33   16   41 1
  34   17   18 ar
  35   17   42 1
  36   18   19 ar
  37   18   43 1
  38   19   20 ar
  39   19   21 1
  40   20   44 1
  41   21   23 1
  42   22   45 1
  43   22   46 1
  44   23   24 ar
  45   23   25 ar
  46   24   28 ar
  47   24   47 1
  48   25   26 ar
  49   25   48 1
  50   26   27 ar
  51   26   49 1
  52   27   28 ar
  53   27   50 1
  54   28   51 1

#	End of record

