#	Name: ASD00845014
#	Creating user name:	WinNT
#	Creation time:	15. 06. 2019 18:51

#	Modifying user name:	WinNT
#	Modification time:	15. 06. 2019 18:51

#	Program:	/corina/corina34_cracker 3.40 0067  02.08.2006

@<TRIPOS>MOLECULE
ASD00845014
  88   93    0    0    0
SMALL
NO_CHARGES


@<TRIPOS>ATOM
   1 F1             5.6883    -2.1825    -1.9693 F       
   2 C2             0.7293     1.2403    -0.3864 C.ar    
   3 C3             0.9753    -0.0982    -0.6547 C.ar    
   4 C4             0.8537    -1.0400     0.3570 C.ar    
   5 C5             0.4882    -0.6427     1.6284 C.ar    
   6 C6             0.2430     0.6922     1.8932 C.ar    
   7 C7             0.3639     1.6325     0.8871 C.ar    
   8 C8             1.1197    -2.4950     0.0688 C.3     
   9 C9             0.7941    -3.3436     1.2794 C.2     
  10 C10            0.3085    -2.9570    -1.1434 C.3     
  11 C11           -1.1520    -2.6675    -0.9104 C.2     
  12 N12           -2.0726    -3.0877    -1.8005 N.am    
  13 O13           -1.4989    -2.0565     0.0781 O.2     
  14 C14           -3.4888    -2.7193    -1.6527 C.3     
  15 C15           -3.9811    -2.1352    -2.9811 C.3     
  16 N16           -3.6962    -3.0846    -4.0653 N.3     
  17 C17           -2.2509    -3.2953    -4.2230 C.3     
  18 C18           -1.6868    -3.9218    -2.9488 C.3     
  19 N19           -4.2981    -2.6456    -5.3139 N.3     
  20 C20           -4.0130    -3.5954    -6.3985 C.3     
  21 C21           -4.7281    -3.1401    -7.6728 C.3     
  22 N22           -4.2761    -1.7878    -8.0285 N.3     
  23 C23           -4.5611    -0.8380    -6.9439 C.3     
  24 C24           -3.8460    -1.2933    -5.6697 C.3     
  25 H25           -3.2948    -1.7847    -8.2633 H       
  26 O26           -0.2907    -3.4549     1.8104 O.2     
  27 N27            1.9324    -3.9507     1.6550 N.am    
  28 C28            2.5957    -2.7286    -0.1580 C.ar    
  29 C29            3.0085    -3.6112     0.8323 C.ar    
  30 C30            3.4856    -2.2501    -1.0934 C.ar    
  31 C31            4.8118    -2.6492    -1.0532 C.ar    
  32 C32            5.2361    -3.5298    -0.0696 C.ar    
  33 C33            4.3427    -4.0097     0.8688 C.ar    
  34 F34            6.5288    -3.9202    -0.0287 F       
  35 C35            1.7220    -6.6068     2.3446 C.ar    
  36 C36            0.4675    -6.9229     1.8432 C.ar    
  37 C37            2.7192    -7.5633     2.3679 C.ar    
  38 C38            2.4700    -8.8361     1.8919 C.ar    
  39 C39            1.2167    -9.1572     1.3893 C.ar    
  40 C40            0.2147    -8.1997     1.3653 C.ar    
  41 O41            0.9720   -10.4095     0.9217 O.3     
  42 O42           -0.5128    -5.9819     1.8209 O.3     
  43 C43           -1.7796    -6.3773     1.2909 C.3     
  44 C44            2.0506   -11.3452     0.9776 C.3     
  45 O45            1.3344    -0.4866    -1.9066 O.3     
  46 C46            1.3617     0.5240    -2.9165 C.3     
  47 C47            1.8698    -0.0790    -4.2277 C.3     
  48 F48            3.1231    -0.6640    -4.0172 F       
  49 F49            0.9695    -1.0528    -4.6729 F       
  50 S50            2.0462    -4.9824     2.9453 S.o2    
  51 O51            3.4080    -4.9689     3.3509 O.2     
  52 O52            0.9725    -4.6551     3.8167 O.2     
  53 H53            0.8277     1.9758    -1.1711 H       
  54 H54            0.3934    -1.3754     2.4162 H       
  55 H55           -0.0434     1.0007     2.8878 H       
  56 H56            0.1720     2.6745     1.0965 H       
  57 H57            0.6473    -2.4240    -2.0318 H       
  58 H58            0.4481    -4.0284    -1.2872 H       
  59 H59           -4.0734    -3.6047    -1.4030 H       
  60 H60           -3.5929    -1.9740    -0.8641 H       
  61 H61           -5.0552    -1.9588    -2.9251 H       
  62 H62           -3.4673    -1.1942    -3.1774 H       
  63 H63           -2.0703    -3.9602    -5.0676 H       
  64 H64           -1.7612    -2.3381    -4.4019 H       
  65 H65           -0.6002    -3.9743    -3.0166 H       
  66 H66           -2.0973    -4.9234    -2.8205 H       
  67 H67           -2.9384    -3.6312    -6.5775 H       
  68 H68           -4.3682    -4.5866    -6.1166 H       
  69 H69           -4.4947    -3.8273    -8.4861 H       
  70 H70           -5.8046    -3.1305    -7.5020 H       
  71 H71           -4.2059     0.1532    -7.2259 H       
  72 H72           -5.6357    -0.8023    -6.7649 H       
  73 H73           -4.0794    -0.6062    -4.8564 H       
  74 H74           -2.7695    -1.3029    -5.8404 H       
  75 H75            3.1502    -1.5648    -1.8577 H       
  76 H76            4.6797    -4.6950     1.6324 H       
  77 H77            3.6951    -7.3153     2.7585 H       
  78 H78            3.2511    -9.5817     1.9105 H       
  79 H79           -0.7612    -8.4477     0.9749 H       
  80 H80           -1.6568    -6.6969     0.2560 H       
  81 H81           -2.1788    -7.2023     1.8809 H       
  82 H82           -2.4695    -5.5344     1.3314 H       
  83 H83            1.7219   -12.3030     0.5744 H       
  84 H84            2.8874   -10.9707     0.3881 H       
  85 H85            2.3651   -11.4755     2.0131 H       
  86 H86            0.3561     0.9180    -3.0635 H       
  87 H87            2.0261     1.3303    -2.6059 H       
  88 H88            1.9569     0.7060    -4.9789 H       
@<TRIPOS>BOND
   1    1   31 1
   2    2    3 ar
   3    2    7 ar
   4    2   53 1
   5    3    4 ar
   6    3   45 1
   7    4    5 ar
   8    4    8 1
   9    5    6 ar
  10    5   54 1
  11    6    7 ar
  12    6   55 1
  13    7   56 1
  14    8    9 1
  15    8   10 1
  16    8   28 1
  17    9   26 2
  18    9   27 am
  19   10   11 1
  20   10   57 1
  21   10   58 1
  22   11   12 am
  23   11   13 2
  24   12   14 1
  25   12   18 1
  26   14   15 1
  27   14   59 1
  28   14   60 1
  29   15   16 1
  30   15   61 1
  31   15   62 1
  32   16   17 1
  33   16   19 1
  34   17   18 1
  35   17   63 1
  36   17   64 1
  37   18   65 1
  38   18   66 1
  39   19   20 1
  40   19   24 1
  41   20   21 1
  42   20   67 1
  43   20   68 1
  44   21   22 1
  45   21   69 1
  46   21   70 1
  47   22   23 1
  48   22   25 1
  49   23   24 1
  50   23   71 1
  51   23   72 1
  52   24   73 1
  53   24   74 1
  54   27   50 am
  55   27   29 1
  56   28   29 ar
  57   28   30 ar
  58   29   33 ar
  59   30   31 ar
  60   30   75 1
  61   31   32 ar
  62   32   33 ar
  63   32   34 1
  64   33   76 1
  65   35   36 ar
  66   35   37 ar
  67   35   50 1
  68   36   42 1
  69   36   40 ar
  70   37   38 ar
  71   37   77 1
  72   38   39 ar
  73   38   78 1
  74   39   40 ar
  75   39   41 1
  76   40   79 1
  77   41   44 1
  78   42   43 1
  79   43   80 1
  80   43   81 1
  81   43   82 1
  82   44   83 1
  83   44   84 1
  84   44   85 1
  85   45   46 1
  86   46   47 1
  87   46   86 1
  88   46   87 1
  89   47   48 1
  90   47   49 1
  91   47   88 1
  92   50   51 2
  93   50   52 2

#	End of record

