#	Name: ASD05490107
#	Creating user name:	WinNT
#	Creation time:	15. 06. 2019 21:01

#	Modifying user name:	WinNT
#	Modification time:	15. 06. 2019 21:01

#	Program:	/corina/corina34_cracker 3.40 0067  02.08.2006

@<TRIPOS>MOLECULE
ASD05490107
  71   75    0    0    0
SMALL
NO_CHARGES


@<TRIPOS>ATOM
   1 N1            -0.0940     1.3580    -0.0766 N.pl3   
   2 O2             4.5677     2.2794    -0.7227 O.3     
   3 N3             2.9855     3.9516    -0.5598 N.ar    
   4 C4             1.7348     4.3738    -0.4060 C.ar    
   5 C5             3.2765     2.6591    -0.5619 C.ar    
   6 N6             2.3515     1.7271    -0.4120 N.ar    
   7 C7             1.0749     2.0606    -0.2519 C.ar    
   8 C8             0.7188     3.4185    -0.2437 C.ar    
   9 N9             1.4399     5.7272    -0.4055 N.pl3   
  10 C10           -1.1080     2.2689     0.0265 C.2     
  11 N11           -0.6266     3.4804    -0.0671 N.2     
  12 C12            5.5348     3.3195    -0.8806 C.3     
  13 C13            6.9248     2.7023    -1.0477 C.3     
  14 O14            6.9710     1.9552    -2.2650 O.3     
  15 C15            8.2327     1.3340    -2.5183 C.3     
  16 C16           -0.2288    -0.0996    -0.0175 C.3     
  17 C17           -0.0878    -0.5596     1.4106 C.ar    
  18 C18           -1.2069    -0.6542     2.2177 C.ar    
  19 C19           -1.0835    -1.0750     3.5266 C.ar    
  20 C20            0.1712    -1.4051     4.0341 C.ar    
  21 C21            1.2955    -1.3084     3.2163 C.ar    
  22 C22            1.1599    -0.8912     1.9079 C.ar    
  23 C23            0.3102    -1.8576     5.4405 C.ar    
  24 C24           -0.3821    -2.9823     5.8847 C.ar    
  25 C25            1.1378    -1.1628     6.3200 C.ar    
  26 C26            1.2633    -1.5880     7.6271 C.ar    
  27 C27            0.5696    -2.7021     8.0642 C.ar    
  28 C28           -0.2493    -3.3987     7.1939 C.ar    
  29 C29            0.7115    -3.1622     9.4922 C.3     
  30 N30           -0.3074    -2.5051    10.3218 N.3     
  31 C31           -0.3573    -3.1022    11.6690 C.3     
  32 C32           -0.1213    -1.9631    12.6830 C.3     
  33 C33           -0.5164    -0.6947    11.8819 C.3     
  34 C34           -0.0285    -1.0596    10.4576 C.3     
  35 O35           -2.4141     1.9624     0.2070 O.3     
  36 C36           -3.3299     3.0553     0.3020 C.3     
  37 C37           -2.3038    -1.1767     4.4050 C.3     
  38 F38           -3.4108    -0.6545     3.7277 F       
  39 F39           -2.5407    -2.5189     4.7206 F       
  40 F40           -2.0925    -0.4511     5.5824 F       
  41 H41            2.1501     6.3783    -0.5181 H       
  42 H42            0.5234     6.0238    -0.2924 H       
  43 H43            5.2914     3.9111    -1.7631 H       
  44 H44            5.5257     3.9609     0.0007 H       
  45 H45            7.6728     3.4945    -1.0791 H       
  46 H46            7.1318     2.0402    -0.2070 H       
  47 H47            9.0078     2.0979    -2.5801 H       
  48 H48            8.4669     0.6435    -1.7080 H       
  49 H49            8.1859     0.7869    -3.4598 H       
  50 H50           -1.2083    -0.3896    -0.3976 H       
  51 H51            0.5485    -0.5613    -0.6264 H       
  52 H52           -2.1791    -0.3981     1.8232 H       
  53 H53            2.2705    -1.5631     3.6046 H       
  54 H54            2.0305    -0.8158     1.2732 H       
  55 H55           -1.0218    -3.5269     5.2061 H       
  56 H56            1.6804    -0.2932     5.9796 H       
  57 H57            1.9045    -1.0502     8.3097 H       
  58 H58           -0.7886    -4.2679     7.5404 H       
  59 H59            0.5779    -4.2429     9.5407 H       
  60 H60            1.7036    -2.9018     9.8610 H       
  61 H61           -1.3350    -3.5532    11.8388 H       
  62 H62            0.4236    -3.8560    11.7697 H       
  63 H63           -0.7641    -2.0840    13.5549 H       
  64 H64            0.9270    -1.9213    12.9786 H       
  65 H65           -1.5956    -0.5431    11.8980 H       
  66 H66            0.0056     0.1843    12.2601 H       
  67 H67            1.0404    -0.8687    10.3621 H       
  68 H68           -0.5842    -0.4940     9.7097 H       
  69 H69           -3.2910     3.6427    -0.6153 H       
  70 H70           -4.3400     2.6715     0.4452 H       
  71 H71           -3.0571     3.6853     1.1487 H       
@<TRIPOS>BOND
   1    1   16 1
   2    1    7 1
   3    1   10 1
   4    2   12 1
   5    2    5 1
   6    3    4 ar
   7    3    5 ar
   8    4    9 1
   9    4    8 ar
  10    5    6 ar
  11    6    7 ar
  12    7    8 ar
  13    8   11 1
  14    9   41 1
  15    9   42 1
  16   10   11 2
  17   10   35 1
  18   12   13 1
  19   12   43 1
  20   12   44 1
  21   13   14 1
  22   13   45 1
  23   13   46 1
  24   14   15 1
  25   15   47 1
  26   15   48 1
  27   15   49 1
  28   16   17 1
  29   16   50 1
  30   16   51 1
  31   17   18 ar
  32   17   22 ar
  33   18   19 ar
  34   18   52 1
  35   19   20 ar
  36   19   37 1
  37   20   21 ar
  38   20   23 1
  39   21   22 ar
  40   21   53 1
  41   22   54 1
  42   23   24 ar
  43   23   25 ar
  44   24   28 ar
  45   24   55 1
  46   25   26 ar
  47   25   56 1
  48   26   27 ar
  49   26   57 1
  50   27   28 ar
  51   27   29 1
  52   28   58 1
  53   29   30 1
  54   29   59 1
  55   29   60 1
  56   30   31 1
  57   30   34 1
  58   31   32 1
  59   31   61 1
  60   31   62 1
  61   32   33 1
  62   32   63 1
  63   32   64 1
  64   33   34 1
  65   33   65 1
  66   33   66 1
  67   34   67 1
  68   34   68 1
  69   35   36 1
  70   36   69 1
  71   36   70 1
  72   36   71 1
  73   37   38 1
  74   37   39 1
  75   37   40 1

#	End of record

