#	Name: ASD01411084
#	Creating user name:	WinNT
#	Creation time:	15. 06. 2019 19:19

#	Modifying user name:	WinNT
#	Modification time:	15. 06. 2019 19:19

#	Program:	/corina/corina34_cracker 3.40 0067  02.08.2006

@<TRIPOS>MOLECULE
ASD01411084
  67   69    0    0    0
SMALL
NO_CHARGES


@<TRIPOS>ATOM
   1 C1             0.3098     2.8133     0.4878 C.2     
   2 C2             1.1811     1.7934     0.1906 C.2     
   3 C3             2.4893     2.0583     0.4760 C.2     
   4 S4             2.6389     3.6732     1.1540 S.3     
   5 C5             0.9048     3.9315     1.0239 C.2     
   6 C6             3.5782     1.1545     0.2564 C.1     
   7 C7             4.4708     0.4136     0.0764 C.1     
   8 C8             5.5901    -0.5154    -0.1493 C.3     
   9 C9             6.8973     0.1432     0.2961 C.3     
  10 C10            5.3623    -1.7944     0.6589 C.3     
  11 C11            5.6742    -0.8607    -1.6374 C.3     
  12 C12            0.2253     5.1094     1.4110 C.2     
  13 O13           -0.9822     5.1870     1.2784 O.2     
  14 O14            0.9157     6.1481     1.9278 O.3     
  15 N15           -1.0641     2.7243     0.2591 N.am    
  16 C16           -1.8665     2.1640     1.1858 C.2     
  17 C17           -1.2709     1.5514     2.4271 C.3     
  18 O18           -3.0680     2.1530     1.0206 O.2     
  19 C19           -0.3284    -0.5387     3.4199 C.3     
  20 C20           -0.9331     0.0833     2.1596 C.3     
  21 C21           -2.2789     1.6419     3.5746 C.3     
  22 C22           -1.6742     1.0198     4.8349 C.3     
  23 C23           -1.3364    -0.4482     4.5673 C.3     
  24 C24           -0.7317    -1.0703     5.8276 C.3     
  25 C25           -1.6340     3.2398    -0.9881 C.3     
  26 C26           -1.7647     2.1156    -1.9831 C.2     
  27 O27           -1.4162     0.9941    -1.6802 O.2     
  28 N28           -2.2690     2.3563    -3.2096 N.am    
  29 O29           -4.1388     2.6228    -5.2070 O.3     
  30 C30           -4.1095     3.6238    -4.1815 C.3     
  31 C31           -2.6929     3.7097    -3.6020 C.3     
  32 C32           -2.4063     1.2748    -4.1979 C.3     
  33 C33           -3.8363     1.3025    -4.7495 C.3     
  34 H34            0.8563     0.8554    -0.2351 H       
  35 H35            6.8375     0.3892     1.3562 H       
  36 H36            7.7261    -0.5447     0.1289 H       
  37 H37            7.0597     1.0544    -0.2797 H       
  38 H38            4.4310    -2.2636     0.3417 H       
  39 H39            6.1911    -2.4823     0.4918 H       
  40 H40            5.3024    -1.5484     1.7191 H       
  41 H41            5.8365     0.0504    -2.2132 H       
  42 H42            6.5030    -1.5486    -1.8046 H       
  43 H43            4.7429    -1.3299    -1.9547 H       
  44 H44            0.3658     6.9081     2.1624 H       
  45 H45           -0.3626     2.0896     2.6981 H       
  46 H46           -0.0878    -1.5846     3.2293 H       
  47 H47            0.5798    -0.0005     3.6908 H       
  48 H48           -1.8414    -0.4550     1.8886 H       
  49 H49           -0.2151     0.0188     1.3421 H       
  50 H50           -2.5195     2.6878     3.7652 H       
  51 H51           -3.1872     1.1036     3.3036 H       
  52 H52           -0.7659     1.5581     5.1058 H       
  53 H53           -2.3923     1.0843     5.6523 H       
  54 H54           -2.2447    -0.9865     4.2964 H       
  55 H55            0.1766    -0.5320     6.0986 H       
  56 H56           -1.4498    -1.0058     6.6451 H       
  57 H57           -0.4911    -2.1161     5.6370 H       
  58 H58           -2.6176     3.6654    -0.7895 H       
  59 H59           -0.9799     4.0109    -1.3951 H       
  60 H60           -4.3934     4.5872    -4.6049 H       
  61 H61           -4.8074     3.3536    -3.3890 H       
  62 H62           -2.6924     4.3622    -2.7289 H       
  63 H63           -2.0112     4.1038    -4.3558 H       
  64 H64           -1.6963     1.4278    -5.0106 H       
  65 H65           -2.2159     0.3140    -3.7195 H       
  66 H66           -4.5331     1.0224    -3.9595 H       
  67 H67           -3.9239     0.6008    -5.5789 H       
@<TRIPOS>BOND
   1    1    2 1
   2    1    5 2
   3    1   15 1
   4    2    3 2
   5    2   34 1
   6    3    4 1
   7    3    6 1
   8    4    5 1
   9    5   12 1
  10    6    7 3
  11    7    8 1
  12    8    9 1
  13    8   10 1
  14    8   11 1
  15    9   35 1
  16    9   36 1
  17    9   37 1
  18   10   38 1
  19   10   39 1
  20   10   40 1
  21   11   41 1
  22   11   42 1
  23   11   43 1
  24   12   13 2
  25   12   14 1
  26   14   44 1
  27   15   16 am
  28   15   25 1
  29   16   18 2
  30   16   17 1
  31   17   21 1
  32   17   20 1
  33   17   45 1
  34   19   20 1
  35   19   23 1
  36   19   46 1
  37   19   47 1
  38   20   48 1
  39   20   49 1
  40   21   22 1
  41   21   50 1
  42   21   51 1
  43   22   23 1
  44   22   52 1
  45   22   53 1
  46   23   24 1
  47   23   54 1
  48   24   55 1
  49   24   56 1
  50   24   57 1
  51   25   26 1
  52   25   58 1
  53   25   59 1
  54   26   27 2
  55   26   28 am
  56   28   32 1
  57   28   31 1
  58   29   30 1
  59   29   33 1
  60   30   31 1
  61   30   60 1
  62   30   61 1
  63   31   62 1
  64   31   63 1
  65   32   33 1
  66   32   64 1
  67   32   65 1
  68   33   66 1
  69   33   67 1

#	End of record

