#	Name: ASD01670027
#	Creating user name:	WinNT
#	Creation time:	15. 06. 2019 19:22

#	Modifying user name:	WinNT
#	Modification time:	15. 06. 2019 19:22

#	Program:	/corina/corina34_cracker 3.40 0067  02.08.2006

@<TRIPOS>MOLECULE
ASD01670027
  30   32    0    0    0
SMALL
NO_CHARGES


@<TRIPOS>ATOM
   1 O1             0.0021    -0.0041     0.0020 O.2     
   2 C2            -0.0144     1.2136     0.0087 C.2     
   3 N3             1.0603     2.0164     0.0028 N.am    
   4 C4             2.4746     1.6327    -0.0607 C.3     
   5 C5             3.3235     2.8160     0.4185 C.3     
   6 C6             2.9262     4.0769    -0.3558 C.3     
   7 C7             1.5334     4.5306     0.1038 C.3     
   8 C8             0.6135     3.3350     0.0485 C.2     
   9 C9            -0.7079     3.3199     0.0518 C.2     
  10 N10           -1.1174     1.9916     0.0175 N.am    
  11 C11           -2.4437     1.5394    -0.0015 C.ar    
  12 C12           -3.4899     2.4521     0.0106 C.ar    
  13 C13           -4.7961     2.0038    -0.0082 C.ar    
  14 C14           -5.0625     0.6464    -0.0385 C.ar    
  15 C15           -4.0218    -0.2653    -0.0501 C.ar    
  16 C16           -2.7137     0.1779    -0.0382 C.ar    
  17 Br17          -6.8522     0.0361    -0.0635 Br      
  18 H18            2.6495     0.7717     0.5844 H       
  19 H19            2.7405     1.3837    -1.0881 H       
  20 H20            3.1556     2.9758     1.4835 H       
  21 H21            4.3778     2.6004     0.2452 H       
  22 H22            3.6501     4.8679    -0.1603 H       
  23 H23            2.9041     3.8573    -1.4233 H       
  24 H24            1.5869     4.9077     1.1251 H       
  25 H25            1.1627     5.3121    -0.5596 H       
  26 H26           -1.3543     4.1849     0.0737 H       
  27 H27           -3.2825     3.5117     0.0350 H       
  28 H28           -5.6102     2.7133     0.0012 H       
  29 H29           -4.2324    -1.3243    -0.0731 H       
  30 H30           -1.9017    -0.5340    -0.0521 H       
@<TRIPOS>BOND
   1    1    2 2
   2    2    3 am
   3    2   10 am
   4    3    4 1
   5    3    8 1
   6    4    5 1
   7    4   18 1
   8    4   19 1
   9    5    6 1
  10    5   20 1
  11    5   21 1
  12    6    7 1
  13    6   22 1
  14    6   23 1
  15    7    8 1
  16    7   24 1
  17    7   25 1
  18    8    9 2
  19    9   10 1
  20    9   26 1
  21   10   11 1
  22   11   12 ar
  23   11   16 ar
  24   12   13 ar
  25   12   27 1
  26   13   14 ar
  27   13   28 1
  28   14   15 ar
  29   14   17 1
  30   15   16 ar
  31   15   29 1
  32   16   30 1

#	End of record

