#	Name: ASD02039027
#	Creating user name:	WinNT
#	Creation time:	15. 06. 2019 20:17

#	Modifying user name:	WinNT
#	Modification time:	15. 06. 2019 20:17

#	Program:	/corina/corina34_cracker 3.40 0067  02.08.2006

@<TRIPOS>MOLECULE
ASD02039027
  45   48    0    0    0
SMALL
NO_CHARGES


@<TRIPOS>ATOM
   1 N1             0.0026     1.2785    -0.2071 N.2     
   2 N2             0.0318    -0.0041    -0.3032 N.2     
   3 C3             1.2281     1.7343    -0.1152 C.2     
   4 O4             2.0535     0.6720    -0.1573 O.3     
   5 C5             1.2659    -0.4146    -0.2767 C.2     
   6 N6             1.6033     3.0608     0.0032 N.pl3   
   7 C7             0.6407     4.0702    -0.0872 C.ar    
   8 C8             1.7303    -1.8456    -0.3637 C.3     
   9 O9             1.9399    -2.1960    -1.7331 O.3     
  10 C10            2.3635    -3.4624    -1.9884 C.ar    
  11 C11            2.5846    -3.8634    -3.2909 C.ar    
  12 C12            2.5779    -4.3470    -0.9344 C.ar    
  13 C13            3.0071    -5.6339    -1.1741 C.ar    
  14 C14            3.2303    -6.0600    -2.4789 C.ar    
  15 C15            3.0203    -5.1674    -3.5470 C.ar    
  16 C16            0.8207     5.2667     0.5948 C.ar    
  17 C17           -0.4956     3.8811    -0.8640 C.ar    
  18 C18           -1.4446     4.8802    -0.9510 C.ar    
  19 C19           -1.2650     6.0683    -0.2660 C.ar    
  20 C20           -0.1326     6.2620     0.5033 C.ar    
  21 N21            3.6600    -7.3454    -2.7399 N.am    
  22 C22            3.8761    -7.7599    -4.0005 C.2     
  23 C23            3.6754    -6.9057    -5.1058 C.2     
  24 O24            4.2553    -8.9021    -4.1935 O.2     
  25 C25            3.2588    -5.6294    -4.9158 C.2     
  26 C26            0.0586     7.5580     1.2483 C.3     
  27 C27           -2.3026     7.1568    -0.3638 C.3     
  28 H28            2.5345     3.2902     0.1489 H       
  29 H29            2.6640    -1.9587     0.1873 H       
  30 H30            0.9727    -2.5003     0.0670 H       
  31 H31            2.4217    -3.1747    -4.1067 H       
  32 H32            2.4063    -4.0209     0.0808 H       
  33 H33            3.1704    -6.3114    -0.3491 H       
  34 H34            1.7048     5.4185     1.1962 H       
  35 H35           -0.6363     2.9537    -1.3994 H       
  36 H36           -2.3279     4.7340    -1.5549 H       
  37 H37            3.8084    -7.9586    -2.0031 H       
  38 H38            3.8586    -7.2685    -6.1064 H       
  39 H39            3.1024    -4.9692    -5.7561 H       
  40 H40           -0.3807     7.4739     2.2423 H       
  41 H41            1.1237     7.7714     1.3387 H       
  42 H42           -0.4288     8.3660     0.7028 H       
  43 H43           -3.0431     7.0249     0.4251 H       
  44 H44           -1.8216     8.1285    -0.2519 H       
  45 H45           -2.7938     7.1043    -1.3355 H       
@<TRIPOS>BOND
   1    1    2 1
   2    1    3 2
   3    2    5 2
   4    3    4 1
   5    3    6 1
   6    4    5 1
   7    5    8 1
   8    6    7 1
   9    6   28 1
  10    7   16 ar
  11    7   17 ar
  12    8    9 1
  13    8   29 1
  14    8   30 1
  15    9   10 1
  16   10   11 ar
  17   10   12 ar
  18   11   15 ar
  19   11   31 1
  20   12   13 ar
  21   12   32 1
  22   13   14 ar
  23   13   33 1
  24   14   15 ar
  25   14   21 1
  26   15   25 1
  27   16   20 ar
  28   16   34 1
  29   17   18 ar
  30   17   35 1
  31   18   19 ar
  32   18   36 1
  33   19   20 ar
  34   19   27 1
  35   20   26 1
  36   21   22 am
  37   21   37 1
  38   22   23 1
  39   22   24 2
  40   23   25 2
  41   23   38 1
  42   25   39 1
  43   26   40 1
  44   26   41 1
  45   26   42 1
  46   27   43 1
  47   27   44 1
  48   27   45 1

#	End of record

