#	Name: ASD01914169
#	Creating user name:	WinNT
#	Creation time:	15. 06. 2019 20:03

#	Modifying user name:	WinNT
#	Modification time:	15. 06. 2019 20:03

#	Program:	/corina/corina34_cracker 3.40 0067  02.08.2006

@<TRIPOS>MOLECULE
ASD01914169
  47   50    0    0    0
SMALL
NO_CHARGES


@<TRIPOS>ATOM
   1 C1            -0.9994     1.6592    -0.2127 C.ar    
   2 C2            -0.8119     0.1948    -0.2053 C.2     
   3 N3            -1.7608    -0.7225    -0.1285 N.2     
   4 C4            -1.1228    -1.9028    -0.1554 C.2     
   5 N5             0.1516    -1.6599    -0.2449 N.2     
   6 O6             0.3547    -0.4647    -0.2810 O.3     
   7 C7            -1.7668    -3.2639    -0.0931 C.3     
   8 C8            -1.4190    -4.0519    -1.3581 C.3     
   9 C9            -2.0993    -5.4219    -1.3109 C.3     
  10 C10           -1.5832    -6.2024    -0.0980 C.3     
  11 N11           -1.7828    -5.3877     1.1083 N.am    
  12 C12           -1.2469    -4.0199     1.1336 C.3     
  13 C13           -2.4447    -5.8856     2.1715 C.2     
  14 C14           -2.5256    -5.1051     3.4231 C.ar    
  15 O15           -2.9753    -6.9771     2.1005 O.2     
  16 C16           -1.4835    -3.6979     5.0668 C.ar    
  17 C17           -3.7936    -4.3206     5.3058 C.ar    
  18 C18           -3.7238    -5.0500     4.1384 C.ar    
  19 C19           -1.4027    -4.4243     3.8982 C.ar    
  20 C20           -0.0929    -6.4995    -0.2755 C.3     
  21 C21           -2.6771    -3.6422     5.7703 C.ar    
  22 C22            0.1067     2.5071    -0.2992 C.ar    
  23 C23           -0.0740     3.8737    -0.3062 C.ar    
  24 C24           -1.3508     4.4085    -0.2273 C.ar    
  25 C25           -2.4536     3.5743    -0.1412 C.ar    
  26 C26           -2.2862     2.2030    -0.1391 C.ar    
  27 F27           -3.3615     1.3895    -0.0552 F       
  28 F28           -1.5202     5.7489    -0.2338 F       
  29 F29           -2.7508    -2.9291     6.9154 F       
  30 H30           -2.8485    -3.1516    -0.0204 H       
  31 H31           -1.7662    -3.5040    -2.2342 H       
  32 H32           -0.3388    -4.1847    -1.4177 H       
  33 H33           -3.1780    -5.2898    -1.2264 H       
  34 H34           -1.8703    -5.9735    -2.2228 H       
  35 H35           -2.1356    -7.1373    -0.0030 H       
  36 H36           -0.1577    -4.0536     1.1076 H       
  37 H37           -1.5773    -3.5147     2.0413 H       
  38 H38           -0.6167    -3.1680     5.4332 H       
  39 H39           -4.7197    -4.2773     5.8598 H       
  40 H40           -4.5942    -5.5777     3.7773 H       
  41 H41           -0.4724    -4.4673     3.3512 H       
  42 H42            0.4565    -5.5622    -0.3638 H       
  43 H43            0.2723    -7.0548     0.5884 H       
  44 H44            0.0542    -7.0933    -1.1777 H       
  45 H45            1.1022     2.0929    -0.3601 H       
  46 H46            0.7815     4.5296    -0.3731 H       
  47 H47           -3.4457     3.9965    -0.0796 H       
@<TRIPOS>BOND
   1    1    2 1
   2    1   22 ar
   3    1   26 ar
   4    2    3 2
   5    2    6 1
   6    3    4 1
   7    4    5 2
   8    4    7 1
   9    5    6 1
  10    7    8 1
  11    7   12 1
  12    7   30 1
  13    8    9 1
  14    8   31 1
  15    8   32 1
  16    9   10 1
  17    9   33 1
  18    9   34 1
  19   10   11 1
  20   10   20 1
  21   10   35 1
  22   11   12 1
  23   11   13 am
  24   12   36 1
  25   12   37 1
  26   13   14 1
  27   13   15 2
  28   14   19 ar
  29   14   18 ar
  30   16   21 ar
  31   16   19 ar
  32   16   38 1
  33   17   18 ar
  34   17   21 ar
  35   17   39 1
  36   18   40 1
  37   19   41 1
  38   20   42 1
  39   20   43 1
  40   20   44 1
  41   21   29 1
  42   22   23 ar
  43   22   45 1
  44   23   24 ar
  45   23   46 1
  46   24   25 ar
  47   24   28 1
  48   25   26 ar
  49   25   47 1
  50   26   27 1

#	End of record

