#	Name: ASD01911267
#	Creating user name:	WinNT
#	Creation time:	15. 06. 2019 19:57

#	Modifying user name:	WinNT
#	Modification time:	15. 06. 2019 19:57

#	Program:	/corina/corina34_cracker 3.40 0067  02.08.2006

@<TRIPOS>MOLECULE
ASD01911267
  47   50    0    0    0
SMALL
NO_CHARGES


@<TRIPOS>ATOM
   1 C1            -0.8558     0.7765    -0.5353 C.3     
   2 C2             0.1189    -0.0696     0.2898 C.3     
   3 N3             1.1059    -0.6724    -0.6164 N.am    
   4 C4             1.8566     0.2033    -1.5266 C.3     
   5 C5             0.8625     1.0463    -2.3313 C.3     
   6 C6            -0.0669     1.7891    -1.3686 C.3     
   7 C7             1.3191    -2.0032    -0.6124 C.2     
   8 O8             2.0564    -2.5032    -1.4396 O.2     
   9 C9             0.6567    -2.8543     0.3972 C.ar    
  10 C10            2.6844    -0.6353    -2.4660 C.2     
  11 N11            3.9351    -0.9864    -2.2986 N.2     
  12 C12            4.2527    -1.7275    -3.3840 C.2     
  13 N13            3.1868    -1.7824    -4.1393 N.2     
  14 O14            2.2786    -1.1654    -3.6240 O.3     
  15 C15            5.5657    -2.3599    -3.6655 C.ar    
  16 C16            6.6185    -2.2157    -2.7648 C.ar    
  17 C17            7.8375    -2.8059    -3.0317 C.ar    
  18 C18            8.0146    -3.5393    -4.1908 C.ar    
  19 C19            6.9724    -3.6857    -5.0887 C.ar    
  20 C20            5.7478    -3.1047    -4.8291 C.ar    
  21 C21            7.1729    -4.4860    -6.3498 C.3     
  22 C22            0.3931    -4.1969     0.1177 C.ar    
  23 C23           -0.2251    -4.9866     1.0632 C.ar    
  24 C24           -0.5853    -4.4501     2.2900 C.ar    
  25 C25           -0.3264    -3.1175     2.5725 C.ar    
  26 C26            0.2970    -2.3206     1.6365 C.ar    
  27 F27           -1.1911    -5.2284     3.2133 F       
  28 H28           -1.4294     0.1284    -1.1979 H       
  29 H29           -1.5344     1.3059     0.1336 H       
  30 H30            0.6284     0.5638     1.0159 H       
  31 H31           -0.4290    -0.8562     0.8087 H       
  32 H32            2.5078     0.8589    -0.9486 H       
  33 H33            1.4069     1.7677    -2.9407 H       
  34 H34            0.2727     0.3956    -2.9770 H       
  35 H35           -0.7594     2.4089    -1.9381 H       
  36 H36            0.5256     2.4209    -0.7069 H       
  37 H37            6.4814    -1.6429    -1.8596 H       
  38 H38            8.6546    -2.6945    -2.3343 H       
  39 H39            8.9700    -3.9992    -4.3959 H       
  40 H40            4.9348    -3.2199    -5.5305 H       
  41 H41            6.9176    -5.5290    -6.1628 H       
  42 H42            6.5312    -4.0903    -7.1371 H       
  43 H43            8.2151    -4.4173    -6.6618 H       
  44 H44            0.6729    -4.6157    -0.8377 H       
  45 H45           -0.4298    -6.0249     0.8480 H       
  46 H46           -0.6093    -2.7046     3.5295 H       
  47 H47            0.4986    -1.2828     1.8577 H       
@<TRIPOS>BOND
   1    1    2 1
   2    1    6 1
   3    1   28 1
   4    1   29 1
   5    2    3 1
   6    2   30 1
   7    2   31 1
   8    3    4 1
   9    3    7 am
  10    4    5 1
  11    4   10 1
  12    4   32 1
  13    5    6 1
  14    5   33 1
  15    5   34 1
  16    6   35 1
  17    6   36 1
  18    7    8 2
  19    7    9 1
  20    9   22 ar
  21    9   26 ar
  22   10   11 2
  23   10   14 1
  24   11   12 1
  25   12   13 2
  26   12   15 1
  27   13   14 1
  28   15   16 ar
  29   15   20 ar
  30   16   17 ar
  31   16   37 1
  32   17   18 ar
  33   17   38 1
  34   18   19 ar
  35   18   39 1
  36   19   20 ar
  37   19   21 1
  38   20   40 1
  39   21   41 1
  40   21   42 1
  41   21   43 1
  42   22   23 ar
  43   22   44 1
  44   23   24 ar
  45   23   45 1
  46   24   25 ar
  47   24   27 1
  48   25   26 ar
  49   25   46 1
  50   26   47 1

#	End of record

