#	Name: ASD01700003
#	Creating user name:	WinNT
#	Creation time:	15. 06. 2019 19:22

#	Modifying user name:	WinNT
#	Modification time:	15. 06. 2019 19:22

#	Program:	/corina/corina34_cracker 3.40 0067  02.08.2006

@<TRIPOS>MOLECULE
ASD01700003
  65   70    0    0    0
SMALL
NO_CHARGES


@<TRIPOS>ATOM
   1 C1            -0.0167     1.3782     0.0096 C.ar    
   2 C2             0.0021    -0.0041     0.0020 C.ar    
   3 C3            -1.1915    -0.7134     0.0101 C.ar    
   4 C4            -2.4012    -0.0321     0.0257 C.ar    
   5 C5            -2.4146     1.3502     0.0333 C.ar    
   6 C6            -1.2236     2.0548     0.0306 C.ar    
   7 Cl7            1.4752     2.2658     0.0001 Cl      
   8 Cl8           -3.9267     2.2027     0.0529 Cl      
   9 N9            -1.1752    -2.1141     0.0019 N.am    
  10 N10            1.2935    -2.7773    -0.0261 N.2     
  11 C11            1.8428    -4.0010    -0.0381 C.2     
  12 C12            0.8505    -4.9095    -0.0332 C.2     
  13 N13           -0.3268    -4.2089    -0.0178 N.pl3   
  14 C14           -0.0202    -2.8854    -0.0137 C.2     
  15 C15           -2.2766    -2.8874     0.0140 C.2     
  16 C16           -1.7900    -4.3209    -0.0008 C.3     
  17 O17           -3.4293    -2.5109     0.0334 O.2     
  18 C18           -2.2856    -5.0412    -1.2563 C.3     
  19 C19           -3.7886    -5.1440    -1.2161 C.ar    
  20 C20           -4.5629    -4.1389    -1.7670 C.ar    
  21 C21           -5.9398    -4.2279    -1.7330 C.ar    
  22 C22           -6.5496    -5.3328    -1.1424 C.ar    
  23 C23           -5.7647    -6.3423    -0.5890 C.ar    
  24 C24           -4.3886    -6.2458    -0.6336 C.ar    
  25 C25           -8.8326    -4.4310    -1.6513 C.ar    
  26 N26          -10.1469    -4.5604    -1.5938 N.ar    
  27 C27          -10.7001    -5.6156    -1.0295 C.ar    
  28 N28           -9.9793    -6.5838    -0.4996 N.ar    
  29 C29           -8.6584    -6.5341    -0.5144 C.ar    
  30 C30           -8.0296    -5.4338    -1.1024 C.ar    
  31 C31            2.3806    -7.2553     2.2427 C.3     
  32 C32            2.4790    -8.6431     2.8849 C.3     
  33 N33            1.2917    -8.8795     3.7169 N.3     
  34 C34            0.0667    -8.8912     2.9063 C.3     
  35 C35           -0.1307    -7.5135     2.2650 C.3     
  36 N36            1.0953    -7.1584     1.5342 N.am    
  37 S37            1.0303    -6.6622    -0.0444 S.o2    
  38 O38           -0.1770    -7.1860    -0.5803 O.2     
  39 O39            2.3093    -6.9308    -0.6024 O.2     
  40 C40           -2.2553    -5.0560     1.2578 C.3     
  41 H41            0.9443    -0.5317    -0.0105 H       
  42 H42           -3.3309    -0.5816     0.0317 H       
  43 H43           -1.2361     3.1347     0.0369 H       
  44 H44            2.9004    -4.2196    -0.0501 H       
  45 H45           -1.9833    -4.4800    -2.1404 H       
  46 H46           -1.8540    -6.0414    -1.2956 H       
  47 H47           -4.0893    -3.2828    -2.2242 H       
  48 H48           -6.5435    -3.4424    -2.1631 H       
  49 H49           -6.2322    -7.2008    -0.1297 H       
  50 H50           -3.7792    -7.0279    -0.2053 H       
  51 H51           -8.3865    -3.5658    -2.1192 H       
  52 H52          -11.7772    -5.6889    -1.0001 H       
  53 H53           -8.0745    -7.3311    -0.0783 H       
  54 H54            2.4307    -6.4894     3.0166 H       
  55 H55            3.1994    -7.1199     1.5361 H       
  56 H56            2.5332    -9.4021     2.1044 H       
  57 H57            3.3739    -8.6943     3.5052 H       
  58 H58            1.3843    -9.7346     4.2446 H       
  59 H59            0.1544    -9.6467     2.1255 H       
  60 H60           -0.7880    -9.1222     3.5421 H       
  61 H61           -0.9721    -7.5488     1.5731 H       
  62 H62           -0.3220    -6.7724     3.0410 H       
  63 H63           -1.9317    -4.5051     2.1409 H       
  64 H64           -3.3428    -5.1302     1.2541 H       
  65 H65           -1.8230    -6.0565     1.2750 H       
@<TRIPOS>BOND
   1    1    2 ar
   2    1    7 1
   3    1    6 ar
   4    2    3 ar
   5    2   41 1
   6    3    4 ar
   7    3    9 1
   8    4    5 ar
   9    4   42 1
  10    5    6 ar
  11    5    8 1
  12    6   43 1
  13    9   14 1
  14    9   15 am
  15   10   11 1
  16   10   14 2
  17   11   12 2
  18   11   44 1
  19   12   13 1
  20   12   37 1
  21   13   14 1
  22   13   16 1
  23   15   16 1
  24   15   17 2
  25   16   18 1
  26   16   40 1
  27   18   19 1
  28   18   45 1
  29   18   46 1
  30   19   20 ar
  31   19   24 ar
  32   20   21 ar
  33   20   47 1
  34   21   22 ar
  35   21   48 1
  36   22   23 ar
  37   22   30 1
  38   23   24 ar
  39   23   49 1
  40   24   50 1
  41   25   26 ar
  42   25   30 ar
  43   25   51 1
  44   26   27 ar
  45   27   28 ar
  46   27   52 1
  47   28   29 ar
  48   29   30 ar
  49   29   53 1
  50   31   32 1
  51   31   36 1
  52   31   54 1
  53   31   55 1
  54   32   33 1
  55   32   56 1
  56   32   57 1
  57   33   34 1
  58   33   58 1
  59   34   35 1
  60   34   59 1
  61   34   60 1
  62   35   36 1
  63   35   61 1
  64   35   62 1
  65   36   37 am
  66   37   38 2
  67   37   39 2
  68   40   63 1
  69   40   64 1
  70   40   65 1

#	End of record

