#	Name: ASD02560011
#	Creating user name:	WinNT
#	Creation time:	15. 06. 2019 20:24

#	Modifying user name:	WinNT
#	Modification time:	15. 06. 2019 20:24

#	Program:	/corina/corina34_cracker 3.40 0067  02.08.2006

@<TRIPOS>MOLECULE
ASD02560011
  29   31    0    0    0
SMALL
NO_CHARGES


@<TRIPOS>ATOM
   1 C1            -0.0169     1.3940     0.0097 C.2     
   2 C2             0.0021    -0.0041     0.0020 C.2     
   3 N3            -1.1545    -0.6817     0.0094 N.2     
   4 C4            -2.3012    -0.0619     0.0237 C.2     
   5 N5            -2.3906     1.2920     0.0314 N.am    
   6 C6            -1.2723     2.0514     0.0304 C.2     
   7 N7             1.2696     1.8139    -0.0003 N.2     
   8 C8             2.0600     0.7795    -0.0134 C.2     
   9 N9             1.3212    -0.3657    -0.0125 N.pl3   
  10 C10            1.8443    -1.7341    -0.0241 C.3     
  11 O11            3.1664    -1.7443    -0.5750 O.3     
  12 C12            4.1046    -2.2064     0.4097 C.3     
  13 C13            3.2700    -3.0672     1.3912 C.3     
  14 C14            1.9364    -2.2719     1.4201 C.3     
  15 C15            5.1916    -3.0570    -0.2504 C.3     
  16 O16            5.9814    -2.2355    -1.1125 O.3     
  17 O17           -1.3418     3.2684     0.0376 O.2     
  18 H18           -3.2100    -0.6453     0.0292 H       
  19 H19           -3.2623     1.7175     0.0414 H       
  20 H20            3.1391     0.8225    -0.0235 H       
  21 H21            1.1915    -2.3743    -0.6176 H       
  22 H22            4.5507    -1.3609     0.9334 H       
  23 H23            3.1189    -4.0735     1.0003 H       
  24 H24            3.7315    -3.0964     2.3782 H       
  25 H25            1.9890    -1.4522     2.1366 H       
  26 H26            1.0968    -2.9302     1.6432 H       
  27 H27            5.8284    -3.4939     0.5189 H       
  28 H28            4.7268    -3.8529    -0.8324 H       
  29 H29            6.6919    -2.7099    -1.5657 H       
@<TRIPOS>BOND
   1    1    2 2
   2    1    7 1
   3    1    6 1
   4    2    3 1
   5    2    9 1
   6    3    4 2
   7    4    5 1
   8    4   18 1
   9    5    6 am
  10    5   19 1
  11    6   17 2
  12    7    8 2
  13    8    9 1
  14    8   20 1
  15    9   10 1
  16   10   11 1
  17   10   14 1
  18   10   21 1
  19   11   12 1
  20   12   13 1
  21   12   15 1
  22   12   22 1
  23   13   14 1
  24   13   23 1
  25   13   24 1
  26   14   25 1
  27   14   26 1
  28   15   16 1
  29   15   27 1
  30   15   28 1
  31   16   29 1

#	End of record

