#	Name: ASD00069301
#	Creating user name:	WinNT
#	Creation time:	15. 06. 2019 18:29

#	Modifying user name:	WinNT
#	Modification time:	15. 06. 2019 18:29

#	Program:	/corina/corina34_cracker 3.40 0067  02.08.2006

@<TRIPOS>MOLECULE
ASD00069301
  95   98    0    0    0
SMALL
NO_CHARGES


@<TRIPOS>ATOM
   1 C1            -0.2726     1.2909     0.4354 C.2     
   2 N2            -0.2122    -0.0538     0.3685 N.am    
   3 O3             0.7489     1.9477     0.3946 O.2     
   4 O4            -1.4651     1.9068     0.5419 O.3     
   5 C5            -1.4438    -0.8457     0.4177 C.3     
   6 C6             1.0849    -0.7237     0.2465 C.3     
   7 N7             3.7788    -0.7906     3.5643 N.3     
   8 C8             3.5103    -2.0783     2.9115 C.3     
   9 C9             2.9307    -1.8335     1.5165 C.3     
  10 C10            1.6371    -1.0239     1.6415 C.3     
  11 C11            1.9351     0.2908     2.3677 C.3     
  12 C12            2.5436    -0.0157     3.7380 C.3     
  13 C13            4.4319    -0.9755     4.7896 C.ar    
  14 C14            3.8262    -1.7150     5.7973 C.ar    
  15 C15            4.4743    -1.8962     7.0065 C.ar    
  16 C16            5.7244    -1.3423     7.2151 C.ar    
  17 C17            6.3335    -0.6049     6.2176 C.ar    
  18 C18            5.6942    -0.4229     4.9995 C.ar    
  19 C19            7.0940     1.3713     4.3019 C.2     
  20 O20            7.1799     1.7394     5.4579 O.2     
  21 N21            6.3129     0.3194     3.9858 N.am    
  22 C22            7.8444     2.0757     3.2463 C.2     
  23 N23            7.8341     1.7752     1.9666 N.2     
  24 C24            8.6314     2.6286     1.3117 C.2     
  25 C25            9.1609     3.4980     2.2246 C.2     
  26 N26            8.6633     3.1548     3.4335 N.pl3   
  27 C27            8.9505     3.8150     4.7093 C.3     
  28 O28            9.8510     4.9029     4.4905 O.3     
  29 C29           10.1979     5.6180     5.6781 C.3     
  30 C30           11.1608     6.7539     5.3264 C.3     
  31 Si31          11.6131     7.6862     6.8746 Si      
  32 C32           12.4340     6.5271     8.0801 C.3     
  33 C33           12.7856     9.0693     6.4465 C.3     
  34 C34           10.0721     8.3947     7.6454 C.3     
  35 C35            8.5659     1.7243    -2.3388 C.ar    
  36 C36            8.2938     1.6870    -0.9868 C.ar    
  37 C37            8.8948     2.6299    -0.1480 C.ar    
  38 C38            9.7506     3.5747    -0.7224 C.ar    
  39 C39            9.9674     3.5405    -2.0840 C.ar    
  40 N40            9.3800     2.6331    -2.8409 N.ar    
  41 C41            7.9296     0.7097    -3.2534 C.3     
  42 F42            2.6048    -2.2567     5.5973 F       
  43 C43           -1.4543     3.3572     0.6092 C.3     
  44 C44           -0.8119     3.9217    -0.6595 C.3     
  45 C45           -2.8899     3.8730     0.7268 C.3     
  46 C46           -0.6497     3.8051     1.8310 C.3     
  47 H47           -1.8209    -0.9944    -0.5941 H       
  48 H48           -1.2354    -1.8136     0.8737 H       
  49 H49           -2.1914    -0.3184     1.0102 H       
  50 H50            0.9619    -1.6564    -0.3040 H       
  51 H51            1.7798    -0.0755    -0.2875 H       
  52 H52            4.4391    -2.6423     2.8251 H       
  53 H53            2.7953    -2.6455     3.5075 H       
  54 H54            3.6508    -1.2782     0.9155 H       
  55 H55            2.7170    -2.7894     1.0383 H       
  56 H56            0.9027    -1.5960     2.2086 H       
  57 H57            2.6396     0.8794     1.7801 H       
  58 H58            1.0101     0.8526     2.4976 H       
  59 H59            1.8332    -0.5925     4.3301 H       
  60 H60            2.7703     0.9185     4.2519 H       
  61 H61            4.0026    -2.4714     7.7895 H       
  62 H62            6.2260    -1.4863     8.1606 H       
  63 H63            7.3093    -0.1734     6.3848 H       
  64 H64            6.1793     0.0764     3.0563 H       
  65 H65            9.8444     4.3083     2.0181 H       
  66 H66            8.0231     4.1922     5.1402 H       
  67 H67            9.4049     3.0994     5.3945 H       
  68 H68            9.2963     6.0325     6.1291 H       
  69 H69           10.6782     4.9398     6.3834 H       
  70 H70           12.0624     6.3394     4.8754 H       
  71 H71           10.6805     7.4321     4.6211 H       
  72 H72           13.3356     6.1126     7.6292 H       
  73 H73           12.6986     7.0726     8.9860 H       
  74 H74           11.7480     5.7179     8.3307 H       
  75 H75           12.3053     9.7475     5.7411 H       
  76 H76           13.0502     9.6148     7.3523 H       
  77 H77           13.6872     8.6548     5.9955 H       
  78 H78            9.3862     7.5855     7.8960 H       
  79 H79           10.3368     8.9402     8.5513 H       
  80 H80            9.5919     9.0729     6.9401 H       
  81 H81            7.6261     0.9406    -0.5826 H       
  82 H82           10.2343     4.3204    -0.1090 H       
  83 H83           10.6265     4.2664    -2.5369 H       
  84 H84            6.9772     1.0953    -3.6174 H       
  85 H85            8.5905     0.5174    -4.0986 H       
  86 H86            7.7607    -0.2176    -2.7059 H       
  87 H87           -1.3851     3.6026    -1.5299 H       
  88 H88           -0.8038     5.0105    -0.6090 H       
  89 H89            0.2109     3.5543    -0.7433 H       
  90 H90           -3.3476     3.4707     1.6306 H       
  91 H91           -2.8818     4.9618     0.7773 H       
  92 H92           -3.4631     3.5538    -0.1437 H       
  93 H93            0.3730     3.4376     1.7472 H       
  94 H94           -0.6416     4.8939     1.8815 H       
  95 H95           -1.1074     3.4029     2.7348 H       
@<TRIPOS>BOND
   1    1    2 am
   2    1    3 2
   3    1    4 1
   4    2    5 1
   5    2    6 1
   6    4   43 1
   7    5   47 1
   8    5   48 1
   9    5   49 1
  10    6   10 1
  11    6   50 1
  12    6   51 1
  13    7    8 1
  14    7   12 1
  15    7   13 1
  16    8    9 1
  17    8   52 1
  18    8   53 1
  19    9   10 1
  20    9   54 1
  21    9   55 1
  22   10   11 1
  23   10   56 1
  24   11   12 1
  25   11   57 1
  26   11   58 1
  27   12   59 1
  28   12   60 1
  29   13   14 ar
  30   13   18 ar
  31   14   15 ar
  32   14   42 1
  33   15   16 ar
  34   15   61 1
  35   16   17 ar
  36   16   62 1
  37   17   18 ar
  38   17   63 1
  39   18   21 1
  40   19   20 2
  41   19   21 am
  42   19   22 1
  43   21   64 1
  44   22   23 2
  45   22   26 1
  46   23   24 1
  47   24   25 2
  48   24   37 1
  49   25   26 1
  50   25   65 1
  51   26   27 1
  52   27   28 1
  53   27   66 1
  54   27   67 1
  55   28   29 1
  56   29   30 1
  57   29   68 1
  58   29   69 1
  59   30   31 1
  60   30   70 1
  61   30   71 1
  62   31   32 1
  63   31   33 1
  64   31   34 1
  65   32   72 1
  66   32   73 1
  67   32   74 1
  68   33   75 1
  69   33   76 1
  70   33   77 1
  71   34   78 1
  72   34   79 1
  73   34   80 1
  74   35   36 ar
  75   35   40 ar
  76   35   41 1
  77   36   37 ar
  78   36   81 1
  79   37   38 ar
  80   38   39 ar
  81   38   82 1
  82   39   40 ar
  83   39   83 1
  84   41   84 1
  85   41   85 1
  86   41   86 1
  87   43   44 1
  88   43   46 1
  89   43   45 1
  90   44   87 1
  91   44   88 1
  92   44   89 1
  93   45   90 1
  94   45   91 1
  95   45   92 1
  96   46   93 1
  97   46   94 1
  98   46   95 1

#	End of record

