#	Name: ASD02038185
#	Creating user name:	WinNT
#	Creation time:	15. 06. 2019 20:16

#	Modifying user name:	WinNT
#	Modification time:	15. 06. 2019 20:16

#	Program:	/corina/corina34_cracker 3.40 0067  02.08.2006

@<TRIPOS>MOLECULE
ASD02038185
  53   55    0    0    0
SMALL
NO_CHARGES


@<TRIPOS>ATOM
   1 C1            -0.7941     1.4076    -0.5504 C.3     
   2 C2            -0.6185    -0.1094    -0.4478 C.3     
   3 N3             0.1612    -0.5885    -1.5977 N.3     
   4 C4             0.2873    -2.0519    -1.5752 C.3     
   5 C5             1.3020    -2.4927    -2.6320 C.3     
   6 C6             1.4333    -4.0168    -2.6086 C.3     
   7 C7             2.4328    -4.4510    -3.6496 C.ar    
   8 C8             3.7707    -4.5614    -3.3176 C.ar    
   9 C9             2.0092    -4.7434    -4.9330 C.ar    
  10 C10            2.9225    -5.1416    -5.8894 C.ar    
  11 C11            4.2680    -5.2481    -5.5609 C.ar    
  12 C12            4.6893    -4.9590    -4.2691 C.ar    
  13 N13            5.1943    -5.6505    -6.5257 N.am    
  14 C14            1.4825     0.0534    -1.6386 C.3     
  15 C15            1.3069     1.5703    -1.7413 C.3     
  16 N16            0.5272     2.0494    -0.5914 N.3     
  17 C17            0.4073     3.4415    -0.6128 C.ar    
  18 C18           -0.2962     4.0948     0.3914 C.ar    
  19 C19           -0.4136     5.4706     0.3683 C.ar    
  20 C20            0.1683     6.1991    -0.6541 C.ar    
  21 C21            0.8702     5.5511    -1.6566 C.ar    
  22 C22            0.9958     4.1746    -1.6347 C.ar    
  23 Cl23           1.5988     6.4685    -2.9377 Cl      
  24 Cl24           0.0177     7.9284    -0.6804 Cl      
  25 S25            5.6656    -4.5955    -7.7119 S.o2    
  26 O26            6.6078    -5.3307    -8.4807 O.2     
  27 O27            4.4458    -4.1442    -8.2844 O.2     
  28 C28            6.4867    -3.2471    -6.8185 C.3     
  29 H29           -1.3442     1.6492    -1.4599 H       
  30 H30           -1.3473     1.7691     0.3164 H       
  31 H31           -0.0923    -0.3529     0.4752 H       
  32 H32           -1.5970    -0.5895    -0.4465 H       
  33 H33            0.6263    -2.3723    -0.5900 H       
  34 H34           -0.6811    -2.5034    -1.7907 H       
  35 H35            0.9630    -2.1723    -3.6172 H       
  36 H36            2.2704    -2.0412    -2.4165 H       
  37 H37            1.7724    -4.3372    -1.6234 H       
  38 H38            0.4649    -4.4683    -2.8241 H       
  39 H39            4.0976    -4.3362    -2.3132 H       
  40 H40            0.9629    -4.6607    -5.1877 H       
  41 H41            2.5909    -5.3702    -6.8915 H       
  42 H42            5.7347    -5.0405    -4.0105 H       
  43 H43            5.5616    -6.5479    -6.5008 H       
  44 H44            2.0326    -0.1883    -0.7291 H       
  45 H45            2.0357    -0.3081    -2.5054 H       
  46 H46            2.2854     2.0504    -1.7426 H       
  47 H47            0.7807     1.8138    -2.6643 H       
  48 H48           -0.7513     3.5270     1.1895 H       
  49 H49           -0.9604     5.9784     1.1490 H       
  50 H50            1.5432     3.6692    -2.4166 H       
  51 H51            7.2818    -3.6557    -6.1949 H       
  52 H52            6.9115    -2.5430    -7.5339 H       
  53 H53            5.7601    -2.7324    -6.1898 H       
@<TRIPOS>BOND
   1    1    2 1
   2    1   16 1
   3    1   29 1
   4    1   30 1
   5    2    3 1
   6    2   31 1
   7    2   32 1
   8    3    4 1
   9    3   14 1
  10    4    5 1
  11    4   33 1
  12    4   34 1
  13    5    6 1
  14    5   35 1
  15    5   36 1
  16    6    7 1
  17    6   37 1
  18    6   38 1
  19    7    8 ar
  20    7    9 ar
  21    8   12 ar
  22    8   39 1
  23    9   10 ar
  24    9   40 1
  25   10   11 ar
  26   10   41 1
  27   11   12 ar
  28   11   13 1
  29   12   42 1
  30   13   25 am
  31   13   43 1
  32   14   15 1
  33   14   44 1
  34   14   45 1
  35   15   16 1
  36   15   46 1
  37   15   47 1
  38   16   17 1
  39   17   18 ar
  40   17   22 ar
  41   18   19 ar
  42   18   48 1
  43   19   20 ar
  44   19   49 1
  45   20   21 ar
  46   20   24 1
  47   21   22 ar
  48   21   23 1
  49   22   50 1
  50   25   26 2
  51   25   27 2
  52   25   28 1
  53   28   51 1
  54   28   52 1
  55   28   53 1

#	End of record

