#	Name: ASD05490072
#	Creating user name:	WinNT
#	Creation time:	15. 06. 2019 21:01

#	Modifying user name:	WinNT
#	Modification time:	15. 06. 2019 21:01

#	Program:	/corina/corina34_cracker 3.40 0067  02.08.2006

@<TRIPOS>MOLECULE
ASD05490072
  43   45    0    0    0
SMALL
NO_CHARGES


@<TRIPOS>ATOM
   1 N1            -0.0178     1.4608     0.0101 N.pl3   
   2 O2             4.5582     2.8949    -0.0261 O.3     
   3 N3             2.7941     4.3826    -0.0015 N.ar    
   4 C4             1.4952     4.6638     0.0118 C.ar    
   5 C5             3.2233     3.1292    -0.0123 C.ar    
   6 N6             2.3949     2.0994    -0.0093 N.ar    
   7 C7             1.0795     2.2895     0.0040 C.ar    
   8 C8             0.5781     3.6006     0.0150 C.ar    
   9 N9             1.0558     5.9772     0.0226 N.pl3   
  10 C10           -1.1306     2.2546     0.0190 C.2     
  11 N11           -0.7773     3.5129     0.0270 N.2     
  12 C12            5.4173     4.0368    -0.0280 C.3     
  13 C13            6.8766     3.5771    -0.0442 C.3     
  14 O14            7.1483     2.8975    -1.2715 O.3     
  15 C15            8.4917     2.4246    -1.3889 C.3     
  16 C16            0.0021    -0.0041     0.0020 C.3     
  17 C17            0.0225    -0.5140     1.4200 C.ar    
  18 C18           -1.1624    -0.6660     2.1175 C.ar    
  19 C19           -1.1433    -1.1342     3.4195 C.ar    
  20 C20            0.0593    -1.4497     4.0226 C.ar    
  21 C21            1.2439    -1.2971     3.3250 C.ar    
  22 C22            1.2247    -0.8351     2.0218 C.ar    
  23 I23            3.0670    -1.7749     4.2399 I       
  24 Cl24          -2.6730    -0.2690     1.3598 Cl      
  25 O25           -2.4073     1.8048     0.0270 O.3     
  26 C26           -3.4422     2.7900     0.0462 C.3     
  27 H27            1.6985     6.7037     0.0206 H       
  28 H28            0.1053     6.1706     0.0323 H       
  29 H29            5.2168     4.6408    -0.9129 H       
  30 H30            5.2335     4.6312     0.8670 H       
  31 H31            7.5315     4.4439     0.0439 H       
  32 H32            7.0539     2.9012     0.7924 H       
  33 H33            8.6170     1.9208    -2.3473 H       
  34 H34            9.1802     3.2675    -1.3287 H       
  35 H35            8.7025     1.7248    -0.5803 H       
  36 H36           -0.8878    -0.3767    -0.5053 H       
  37 H37            0.8920    -0.3525    -0.5222 H       
  38 H38           -2.0682    -1.2527     3.9645 H       
  39 H39            0.0743    -1.8152     5.0387 H       
  40 H40            2.1498    -0.7165     1.4773 H       
  41 H41           -3.3595     3.4211    -0.8387 H       
  42 H42           -4.4139     2.2962     0.0508 H       
  43 H43           -3.3425     3.4042     0.9411 H       
@<TRIPOS>BOND
   1    1   16 1
   2    1    7 1
   3    1   10 1
   4    2   12 1
   5    2    5 1
   6    3    4 ar
   7    3    5 ar
   8    4    9 1
   9    4    8 ar
  10    5    6 ar
  11    6    7 ar
  12    7    8 ar
  13    8   11 1
  14    9   27 1
  15    9   28 1
  16   10   11 2
  17   10   25 1
  18   12   13 1
  19   12   29 1
  20   12   30 1
  21   13   14 1
  22   13   31 1
  23   13   32 1
  24   14   15 1
  25   15   33 1
  26   15   34 1
  27   15   35 1
  28   16   17 1
  29   16   36 1
  30   16   37 1
  31   17   18 ar
  32   17   22 ar
  33   18   19 ar
  34   18   24 1
  35   19   20 ar
  36   19   38 1
  37   20   21 ar
  38   20   39 1
  39   21   22 ar
  40   21   23 1
  41   22   40 1
  42   25   26 1
  43   26   41 1
  44   26   42 1
  45   26   43 1

#	End of record

