#	Name: ASD01884883
#	Creating user name:	WinNT
#	Creation time:	15. 06. 2019 19:49

#	Modifying user name:	WinNT
#	Modification time:	15. 06. 2019 19:49

#	Program:	/corina/corina34_cracker 3.40 0067  02.08.2006

@<TRIPOS>MOLECULE
ASD01884883
  47   51    0    0    0
SMALL
NO_CHARGES


@<TRIPOS>ATOM
   1 C1            -0.5580     1.1916    -0.0269 C.ar    
   2 C2            -0.3845    -0.1614     0.0126 C.ar    
   3 C3             0.8919    -0.7219    -0.1155 C.ar    
   4 C4             1.9994     0.0996    -0.2848 C.ar    
   5 C5             1.8261     1.4825    -0.3257 C.ar    
   6 C6             0.5374     2.0339    -0.1957 C.ar    
   7 C7             2.7395     2.6176    -0.4857 C.2     
   8 C8             1.9923     3.7318    -0.4458 C.2     
   9 N9             0.6732     3.4038    -0.2730 N.pl3   
  10 C10            1.0620    -2.1930    -0.0698 C.2     
  11 C11            0.8209    -2.8860     1.1004 C.2     
  12 C12            1.4678    -2.9020    -1.2284 C.2     
  13 C13            1.6214    -4.2374    -1.1875 C.2     
  14 N14            1.3905    -4.9335    -0.0328 N.pl3   
  15 C15            0.9901    -4.2819     1.1139 C.2     
  16 C16            1.4629    -6.2538     0.2974 C.2     
  17 N17            1.1293    -6.3612     1.5617 N.2     
  18 N18            0.8486    -5.2045     2.0499 N.2     
  19 O19            1.8146    -7.2706    -0.5298 O.3     
  20 C20           -0.3802     4.3231    -0.1876 C.ar    
  21 C21            1.8243    -8.5865     0.0275 C.3     
  22 C22            2.2424    -9.5922    -1.0470 C.3     
  23 C23           -1.5173     4.1660    -0.9686 C.ar    
  24 N24           -2.5108     5.0287    -0.8908 N.ar    
  25 C25           -2.4683     6.0658    -0.0776 C.ar    
  26 C26           -1.3695     6.2898     0.7312 C.ar    
  27 C27           -0.3047     5.4051     0.6861 C.ar    
  28 C28            0.3834    -2.1567     2.3446 C.3     
  29 F29           -0.9960    -1.9292     2.2911 F       
  30 F30            0.6849    -2.9316     3.4697 F       
  31 F31            1.0551    -0.9324     2.4280 F       
  32 H32           -1.5490     1.6102     0.0686 H       
  33 H33           -1.2407    -0.8064     0.1443 H       
  34 H34            2.9858    -0.3290    -0.3836 H       
  35 H35            3.8110     2.5670    -0.6114 H       
  36 H36            2.3741     4.7379    -0.5367 H       
  37 H37            1.6542    -2.3673    -2.1481 H       
  38 H38            1.9304    -4.7666    -2.0768 H       
  39 H39            2.5315    -8.6249     0.8560 H       
  40 H40            0.8267    -8.8351     0.3894 H       
  41 H41            2.2498   -10.5959    -0.6220 H       
  42 H42            1.5352    -9.5537    -1.8756 H       
  43 H43            3.2400    -9.3436    -1.4090 H       
  44 H44           -1.5883     3.3286    -1.6470 H       
  45 H45           -3.3032     6.7501    -0.0432 H       
  46 H46           -1.3436     7.1423     1.3938 H       
  47 H47            0.5661     5.5552     1.3070 H       
@<TRIPOS>BOND
   1    1    2 ar
   2    1    6 ar
   3    1   32 1
   4    2    3 ar
   5    2   33 1
   6    3    4 ar
   7    3   10 1
   8    4    5 ar
   9    4   34 1
  10    5    6 ar
  11    5    7 1
  12    6    9 1
  13    7    8 2
  14    7   35 1
  15    8    9 1
  16    8   36 1
  17    9   20 1
  18   10   11 2
  19   10   12 1
  20   11   28 1
  21   11   15 1
  22   12   13 2
  23   12   37 1
  24   13   14 1
  25   13   38 1
  26   14   15 1
  27   14   16 1
  28   15   18 2
  29   16   17 2
  30   16   19 1
  31   17   18 1
  32   19   21 1
  33   20   23 ar
  34   20   27 ar
  35   21   22 1
  36   21   39 1
  37   21   40 1
  38   22   41 1
  39   22   42 1
  40   22   43 1
  41   23   24 ar
  42   23   44 1
  43   24   25 ar
  44   25   26 ar
  45   25   45 1
  46   26   27 ar
  47   26   46 1
  48   27   47 1
  49   28   29 1
  50   28   30 1
  51   28   31 1

#	End of record

