#	Name: ASD01881063
#	Creating user name:	WinNT
#	Creation time:	15. 06. 2019 19:41

#	Modifying user name:	WinNT
#	Modification time:	15. 06. 2019 19:41

#	Program:	/corina/corina34_cracker 3.40 0067  02.08.2006

@<TRIPOS>MOLECULE
ASD01881063
  42   44    0    0    0
SMALL
NO_CHARGES


@<TRIPOS>ATOM
   1 O1             0.1250     1.9572     0.6599 O.3     
   2 C2             0.1331     0.5262     0.3861 C.3     
   3 C3             1.6296     0.1600     0.3592 C.3     
   4 N4             2.3078     1.4382     0.6235 N.am    
   5 C5             1.3833     2.3955     0.7801 C.2     
   6 C6            -0.5859    -0.2371     1.5003 C.3     
   7 O7            -1.9744     0.1003     1.4895 O.3     
   8 O8             1.6623     3.5556     1.0099 O.2     
   9 C9             3.6929     1.6242     0.6991 C.ar    
  10 C10            4.2124     2.8862     0.9557 C.ar    
  11 C11            5.5797     3.0665     1.0297 C.ar    
  12 C12            6.4311     1.9921     0.8480 C.ar    
  13 C13            5.9169     0.7343     0.5918 C.ar    
  14 C14            4.5503     0.5462     0.5233 C.ar    
  15 C15           -2.7615    -0.4958     2.4233 C.ar    
  16 C16           -2.2078    -1.3873     3.3312 C.ar    
  17 C17           -3.0070    -1.9944     4.2814 C.ar    
  18 C18           -4.3591    -1.7163     4.3303 C.ar    
  19 C19           -4.9189    -0.8249     3.4235 C.ar    
  20 C20           -4.1169    -0.2094     2.4731 C.ar    
  21 N21           -6.2886    -0.5434     3.4727 N.am    
  22 C22           -6.9231    -0.4883     4.6605 C.2     
  23 O23           -6.3270    -0.7655     5.6798 O.2     
  24 C24           -8.3731    -0.0824     4.7222 C.3     
  25 H25           -0.3284     0.3193    -0.5795 H       
  26 H26            1.8606    -0.5646     1.1400 H       
  27 H27            1.9114    -0.2276    -0.6198 H       
  28 H28           -0.4712    -1.3090     1.3389 H       
  29 H29           -0.1537     0.0336     2.4636 H       
  30 H30            3.5480     3.7258     1.0970 H       
  31 H31            5.9844     4.0477     1.2293 H       
  32 H32            7.5000     2.1358     0.9060 H       
  33 H33            6.5844    -0.1027     0.4497 H       
  34 H34            4.1493    -0.4364     0.3232 H       
  35 H35           -1.1511    -1.6074     3.2950 H       
  36 H36           -2.5736    -2.6879     4.9868 H       
  37 H37           -4.9815    -2.1922     5.0735 H       
  38 H38           -4.5496     0.4839     1.7671 H       
  39 H39           -6.7816    -0.3878     2.6519 H       
  40 H40           -9.0024    -0.9680     4.6333 H       
  41 H41           -8.5722     0.4107     5.6737 H       
  42 H42           -8.5934     0.6036     3.9043 H       
@<TRIPOS>BOND
   1    1    2 1
   2    1    5 1
   3    2    3 1
   4    2    6 1
   5    2   25 1
   6    3    4 1
   7    3   26 1
   8    3   27 1
   9    4    5 am
  10    4    9 1
  11    5    8 2
  12    6    7 1
  13    6   28 1
  14    6   29 1
  15    7   15 1
  16    9   10 ar
  17    9   14 ar
  18   10   11 ar
  19   10   30 1
  20   11   12 ar
  21   11   31 1
  22   12   13 ar
  23   12   32 1
  24   13   14 ar
  25   13   33 1
  26   14   34 1
  27   15   16 ar
  28   15   20 ar
  29   16   17 ar
  30   16   35 1
  31   17   18 ar
  32   17   36 1
  33   18   19 ar
  34   18   37 1
  35   19   20 ar
  36   19   21 1
  37   20   38 1
  38   21   22 am
  39   21   39 1
  40   22   23 2
  41   22   24 1
  42   24   40 1
  43   24   41 1
  44   24   42 1

#	End of record

