#	Name: ASD01120360
#	Creating user name:	WinNT
#	Creation time:	15. 06. 2019 18:59

#	Modifying user name:	WinNT
#	Modification time:	15. 06. 2019 18:59

#	Program:	/corina/corina34_cracker 3.40 0067  02.08.2006

@<TRIPOS>MOLECULE
ASD01120360
  40   42    0    0    0
SMALL
NO_CHARGES


@<TRIPOS>ATOM
   1 C1            -0.0318     1.3612    -0.5234 C.ar    
   2 C2            -0.0092    -0.0222    -0.4420 C.ar    
   3 C3             1.1829    -0.7024    -0.3162 C.ar    
   4 C4             2.3863    -0.0044    -0.2690 C.ar    
   5 C5             2.3786     1.4012    -0.3505 C.ar    
   6 C6             1.1509     2.0849    -0.4791 C.ar    
   7 N7             3.6976    -0.4018    -0.1508 N.pl3   
   8 C8             4.5038     0.7204    -0.1569 C.2     
   9 C9             3.7228     1.8282    -0.2775 C.2     
  10 C10            4.2057     3.2549    -0.3256 C.3     
  11 C11            4.3277     3.7032    -1.7833 C.3     
  12 C12            4.8106     5.1299    -1.8314 C.2     
  13 O13            4.9923     5.7375    -3.0145 O.3     
  14 O14            5.0343     5.7269    -0.8051 O.2     
  15 C15            5.9683     0.7180    -0.0499 C.2     
  16 O16            6.5807     1.7682    -0.0655 O.2     
  17 O17            6.6340    -0.4491     0.0657 O.3     
  18 C18            1.1252     3.5635    -0.5666 C.ar    
  19 C19            0.6032     4.1885    -1.6987 C.ar    
  20 C20            0.5814     5.5663    -1.7758 C.ar    
  21 C21            1.0760     6.3285    -0.7333 C.ar    
  22 C22            1.5967     5.7142     0.3946 C.ar    
  23 C23            1.6178     4.3354     0.4851 C.ar    
  24 F24            2.0792     6.4644     1.4094 F       
  25 N25            1.1835    -2.1802    -0.2305 N.pl3   
  26 O26            0.1316    -2.7930    -0.2712 O.2     
  27 O27            2.2358    -2.7834    -0.1193 O.2     
  28 H28           -0.9745     1.8780    -0.6262 H       
  29 H29           -0.9370    -0.5738    -0.4773 H       
  30 H30            4.0057    -1.3185    -0.0756 H       
  31 H31            3.4942     3.8970     0.1937 H       
  32 H32            5.1796     3.3254     0.1589 H       
  33 H33            5.0392     3.0611    -2.3026 H       
  34 H34            3.3538     3.6327    -2.2678 H       
  35 H35            5.3032     6.6529    -2.9947 H       
  36 H36            7.5974    -0.4002     0.1331 H       
  37 H37            0.2168     3.5952    -2.5141 H       
  38 H38            0.1775     6.0505    -2.6526 H       
  39 H39            1.0567     7.4063    -0.7984 H       
  40 H40            2.0233     3.8568     1.3642 H       
@<TRIPOS>BOND
   1    1    2 ar
   2    1    6 ar
   3    1   28 1
   4    2    3 ar
   5    2   29 1
   6    3   25 1
   7    3    4 ar
   8    4    5 ar
   9    4    7 1
  10    5    6 ar
  11    5    9 1
  12    6   18 1
  13    7    8 1
  14    7   30 1
  15    8    9 2
  16    8   15 1
  17    9   10 1
  18   10   11 1
  19   10   31 1
  20   10   32 1
  21   11   12 1
  22   11   33 1
  23   11   34 1
  24   12   13 1
  25   12   14 2
  26   13   35 1
  27   15   16 2
  28   15   17 1
  29   17   36 1
  30   18   19 ar
  31   18   23 ar
  32   19   20 ar
  33   19   37 1
  34   20   21 ar
  35   20   38 1
  36   21   22 ar
  37   21   39 1
  38   22   23 ar
  39   22   24 1
  40   23   40 1
  41   25   26 2
  42   25   27 2

#	End of record

