#	Name: ASD03451009
#	Creating user name:	WinNT
#	Creation time:	15. 06. 2019 20:42

#	Modifying user name:	WinNT
#	Modification time:	15. 06. 2019 20:42

#	Program:	/corina/corina34_cracker 3.40 0067  02.08.2006

@<TRIPOS>MOLECULE
ASD03451009
  41   44    0    0    0
SMALL
NO_CHARGES


@<TRIPOS>ATOM
   1 C1             0.0867     1.5407    -0.0976 C.ar    
   2 C2             0.1141     0.1615    -0.2398 C.ar    
   3 C3             1.3168    -0.5091    -0.2555 C.ar    
   4 C4             2.5247     0.1913    -0.1288 C.ar    
   5 C5             2.4975     1.5847     0.0075 C.ar    
   6 C6             1.2608     2.2474     0.0248 C.ar    
   7 C7             3.7718    -0.5879    -0.1402 C.2     
   8 N8             4.7845    -0.3488     0.6213 N.2     
   9 C9             4.7761     0.7612     1.5743 C.3     
  10 C10            4.6567     2.0524     0.8134 C.2     
  11 N11            3.6166     2.3471     0.1202 N.2     
  12 C12            3.8713    -1.7215    -1.0890 C.ar    
  13 C13            3.0763    -1.7476    -2.2345 C.ar    
  14 C14            3.1738    -2.8058    -3.1146 C.ar    
  15 C15            4.0577    -3.8398    -2.8623 C.ar    
  16 C16            4.8490    -3.8196    -1.7277 C.ar    
  17 C17            4.7646    -2.7640    -0.8431 C.ar    
  18 C18            3.6030     0.6155     2.5090 C.2     
  19 S19            2.6902     1.9476     3.2058 S.3     
  20 C20            1.6426     0.8223     4.0602 C.2     
  21 C21            2.0158    -0.4294     3.7898 C.2     
  22 C22            3.0945    -0.5437     2.9299 C.2     
  23 Cl23          -1.3719    -0.7221    -0.3977 Cl      
  24 N24            5.6912     2.9435     0.8608 N.pl3   
  25 C25            5.6016     4.2094     0.1289 C.3     
  26 H26           -0.8590     2.0622    -0.0874 H       
  27 H27            1.3297    -1.5833    -0.3660 H       
  28 H28            1.2303     3.3214     0.1345 H       
  29 H29            5.7040     0.7587     2.1462 H       
  30 H30            2.3855    -0.9413    -2.4322 H       
  31 H31            2.5587    -2.8271    -4.0021 H       
  32 H32            4.1299    -4.6663    -3.5538 H       
  33 H33            5.5368    -4.6298    -1.5359 H       
  34 H34            5.3828    -2.7493     0.0423 H       
  35 H35            0.8229     1.1021     4.7052 H       
  36 H36            1.5121    -1.2888     4.2072 H       
  37 H37            3.4983    -1.4988     2.6281 H       
  38 H38            6.4850     2.7380     1.3790 H       
  39 H39            6.5142     4.7847     0.2850 H       
  40 H40            5.4777     4.0061    -0.9348 H       
  41 H41            4.7464     4.7793     0.4920 H       
@<TRIPOS>BOND
   1    1    2 ar
   2    1    6 ar
   3    1   26 1
   4    2    3 ar
   5    2   23 1
   6    3    4 ar
   7    3   27 1
   8    4    5 ar
   9    4    7 1
  10    5    6 ar
  11    5   11 1
  12    6   28 1
  13    7    8 2
  14    7   12 1
  15    8    9 1
  16    9   10 1
  17    9   18 1
  18    9   29 1
  19   10   11 2
  20   10   24 1
  21   12   13 ar
  22   12   17 ar
  23   13   14 ar
  24   13   30 1
  25   14   15 ar
  26   14   31 1
  27   15   16 ar
  28   15   32 1
  29   16   17 ar
  30   16   33 1
  31   17   34 1
  32   18   19 1
  33   18   22 2
  34   19   20 1
  35   20   21 2
  36   20   35 1
  37   21   22 1
  38   21   36 1
  39   22   37 1
  40   24   25 1
  41   24   38 1
  42   25   39 1
  43   25   40 1
  44   25   41 1

#	End of record

