#	Name: ASD05120003
#	Creating user name:	WinNT
#	Creation time:	15. 06. 2019 20:56

#	Modifying user name:	WinNT
#	Modification time:	15. 06. 2019 20:56

#	Program:	/corina/corina34_cracker 3.40 0067  02.08.2006

@<TRIPOS>MOLECULE
ASD05120003
  88   93    0    0    0
SMALL
NO_CHARGES


@<TRIPOS>ATOM
   1 C1             1.2556    -0.6439     1.8848 C.ar    
   2 C2             1.2740    -2.0067     1.8766 C.ar    
   3 C3             0.0932    -2.7409     1.8841 C.ar    
   4 C4            -1.1315    -2.1045     1.9005 C.ar    
   5 C5            -1.1793    -0.6939     1.9098 C.ar    
   6 C6             0.0312     0.0426     1.9069 C.ar    
   7 C7            -2.4072    -0.0097     1.9276 C.ar    
   8 C8            -2.4115     1.3861     1.9372 C.ar    
   9 C9            -1.1986     2.1006     1.9287 C.ar    
  10 C10           -0.0082     1.4509     1.9165 C.ar    
  11 N11           -3.5949     2.0600     1.9545 N.2     
  12 N12           -3.6025     3.3500     1.9634 N.2     
  13 N13           -2.3084    -2.8468     1.9073 N.pl3   
  14 O14           -3.5749    -0.6984     1.9348 O.3     
  15 C15           -4.7874     4.0247     1.9807 C.ar    
  16 C16           -5.9955     3.3195     1.9887 C.ar    
  17 C17           -7.1864     3.9972     2.0061 C.ar    
  18 C18           -7.2007     5.3940     2.0159 C.ar    
  19 C19           -6.0017     6.1066     2.0080 C.ar    
  20 C20           -4.7972     5.4288     1.9964 C.ar    
  21 C21           -8.4917     6.1198     2.0342 C.ar    
  22 C22           -9.6906     5.4072     2.0416 C.ar    
  23 C23          -10.8950     6.0849     2.0587 C.ar    
  24 C24          -10.9050     7.4891     2.0685 C.ar    
  25 C25           -9.6969     8.1943     2.0609 C.ar    
  26 C26           -8.5059     7.5165     2.0497 C.ar    
  27 N27          -12.0898     8.1638     2.0849 N.2     
  28 N28          -12.0974     9.4537     2.0939 N.2     
  29 C29          -13.2809    10.1277     2.1102 C.ar    
  30 C30          -14.4938     9.4132     2.1173 C.ar    
  31 C31          -15.6842    10.0628     2.1331 C.ar    
  32 C32          -15.7235    11.4711     2.1427 C.ar    
  33 C33          -14.5131    12.2076     2.1363 C.ar    
  34 C34          -13.2851    11.5235     2.1257 C.ar    
  35 C35          -16.9480    12.1577     2.1581 C.ar    
  36 C36          -16.9663    13.5205     2.1668 C.ar    
  37 C37          -15.7855    14.2547     2.1607 C.ar    
  38 C38          -14.5608    13.6182     2.1456 C.ar    
  39 O39          -12.1174    12.2121     2.1194 O.3     
  40 N40          -13.3839    14.3606     2.1397 N.pl3   
  41 S41            2.7698     0.2570     1.8751 S.o2    
  42 O42            3.1796     0.3383     0.5168 O.2     
  43 O43            2.5623     1.3996     2.6940 O.2     
  44 O44            3.8079    -0.5989     2.5866 O.3     
  45 Na45           4.4698    -2.1335     1.5064 Du      
  46 O46           -3.6275     6.1184     1.9891 O.3     
  47 C47           -3.7153     7.5447     1.9942 C.3     
  48 S48            0.1610    -4.5015     1.8718 S.o2    
  49 O49            0.3437    -4.9054     3.2219 O.2     
  50 O50           -0.9275    -4.9394     1.0701 O.2     
  51 O51            1.4288    -4.8984     1.1291 O.3     
  52 Na52           3.0986    -4.6314     2.1782 Du      
  53 S53          -18.4623    11.2569     2.1656 S.o2    
  54 O54          -18.8975    11.1925     0.8144 O.2     
  55 O55          -18.2395    10.1042     2.9661 O.2     
  56 O56          -19.4866    12.1037     2.9072 O.3     
  57 Na57         -20.1685    13.6517     1.8588 Du      
  58 O58          -12.0647     5.3953     2.0655 O.3     
  59 C59          -11.9771     3.9690     2.0543 C.3     
  60 S60          -15.8533    16.0153     2.1724 S.o2    
  61 O61          -16.0097    16.4018     3.5309 O.2     
  62 O62          -14.7806    16.4636     1.3554 O.2     
  63 O63          -17.1352    16.4216     1.4597 O.3     
  64 Na64         -18.7844    16.1410     2.5375 Du      
  65 H65            2.2214    -2.5249     1.8638 H       
  66 H66           -1.2162     3.1804     1.9356 H       
  67 H67            0.9128     2.0151     1.9105 H       
  68 H68           -2.3278    -3.7213     2.3267 H       
  69 H69           -3.1094    -2.4899     1.4928 H       
  70 H70           -3.9045    -0.9046     2.8203 H       
  71 H71           -5.9896     2.2395     1.9809 H       
  72 H72           -8.1172     3.4495     2.0119 H       
  73 H73           -6.0145     7.1865     2.0152 H       
  74 H74           -9.6779     4.3273     2.0337 H       
  75 H75           -9.7027     9.2742     2.0681 H       
  76 H76           -7.5751     8.0642     2.0443 H       
  77 H77          -14.4762     8.3334     2.1097 H       
  78 H78          -16.6051     9.4987     2.1380 H       
  79 H79          -17.9138    14.0388     2.1783 H       
  80 H80          -11.7723    12.4093     3.0010 H       
  81 H81          -13.3566    15.2298     2.5693 H       
  82 H82          -12.5909    14.0088     1.7059 H       
  83 H83           -2.7119     7.9705     1.9874 H       
  84 H84           -4.2575     7.8785     1.1095 H       
  85 H85           -4.2433     7.8731     2.8894 H       
  86 H86          -12.9804     3.5432     2.0614 H       
  87 H87          -11.4509     3.6444     1.1566 H       
  88 H88          -11.4329     3.6315     2.9364 H       
@<TRIPOS>BOND
   1    1    2 ar
   2    1   41 1
   3    1    6 ar
   4    2    3 ar
   5    2   65 1
   6    3    4 ar
   7    3   48 1
   8    4    5 ar
   9    4   13 1
  10    5    6 ar
  11    5    7 ar
  12    6   10 ar
  13    7    8 ar
  14    7   14 1
  15    8    9 ar
  16    8   11 1
  17    9   10 ar
  18    9   66 1
  19   10   67 1
  20   11   12 2
  21   12   15 1
  22   13   68 1
  23   13   69 1
  24   14   70 1
  25   15   16 ar
  26   15   20 ar
  27   16   17 ar
  28   16   71 1
  29   17   18 ar
  30   17   72 1
  31   18   19 ar
  32   18   21 1
  33   19   20 ar
  34   19   73 1
  35   20   46 1
  36   21   22 ar
  37   21   26 ar
  38   22   23 ar
  39   22   74 1
  40   23   24 ar
  41   23   58 1
  42   24   25 ar
  43   24   27 1
  44   25   26 ar
  45   25   75 1
  46   26   76 1
  47   27   28 2
  48   28   29 1
  49   29   30 ar
  50   29   34 ar
  51   30   31 ar
  52   30   77 1
  53   31   32 ar
  54   31   78 1
  55   32   33 ar
  56   32   35 ar
  57   33   34 ar
  58   33   38 ar
  59   34   39 1
  60   35   36 ar
  61   35   53 1
  62   36   37 ar
  63   36   79 1
  64   37   38 ar
  65   37   60 1
  66   38   40 1
  67   39   80 1
  68   40   81 1
  69   40   82 1
  70   41   42 2
  71   41   43 2
  72   41   44 1
  73   44   45 1
  74   46   47 1
  75   47   83 1
  76   47   84 1
  77   47   85 1
  78   48   49 2
  79   48   50 2
  80   48   51 1
  81   51   52 1
  82   53   54 2
  83   53   55 2
  84   53   56 1
  85   56   57 1
  86   58   59 1
  87   59   86 1
  88   59   87 1
  89   59   88 1
  90   60   61 2
  91   60   62 2
  92   60   63 1
  93   63   64 1

#	End of record

