#	Name: ASD05430339
#	Creating user name:	WinNT
#	Creation time:	15. 06. 2019 21:00

#	Modifying user name:	WinNT
#	Modification time:	15. 06. 2019 21:00

#	Program:	/corina/corina34_cracker 3.40 0067  02.08.2006

@<TRIPOS>MOLECULE
ASD05430339
  57   61    0    0    0
SMALL
NO_CHARGES


@<TRIPOS>ATOM
   1 C1            -0.0754     0.3639    -0.0323 C.ar    
   2 C2            -0.1290    -0.8531    -0.7113 C.ar    
   3 C3            -1.3167    -1.2751    -1.2952 C.ar    
   4 C4            -2.4479    -0.4938    -1.2061 C.ar    
   5 C5            -2.4020     0.7285    -0.5261 C.ar    
   6 C6            -1.2071     1.1507     0.0663 C.ar    
   7 C7            -4.8328     0.9887    -0.4410 C.2     
   8 C8            -3.6079     1.5643    -0.4302 C.2     
   9 O9             1.0890     0.7737     0.5374 O.3     
  10 C10            1.0716     2.0306     1.2170 C.3     
  11 C11            1.1070    -2.9886    -0.5129 C.2     
  12 N12            1.0185    -1.6522    -0.8051 N.pl3   
  13 C13            2.3831    -3.3540    -0.7407 C.2     
  14 N14            3.0593    -2.2745    -1.1605 N.2     
  15 C15            2.2529    -1.2488    -1.2032 C.2     
  16 C16            2.9528    -4.7368    -0.5554 C.3     
  17 N17           -5.1313    -0.3806    -0.4001 N.am    
  18 C18           -6.4689    -0.5305    -0.4248 C.2     
  19 N19           -7.0893     0.6506    -0.4707 N.am    
  20 C20           -6.1343     1.6633    -0.4917 C.2     
  21 C21           -8.5309     0.9366    -0.4821 C.3     
  22 C22           -8.7197     2.3493     0.0910 C.3     
  23 C23           -7.8284     3.3371    -0.6631 C.3     
  24 N24           -6.4207     2.9301    -0.5636 N.2     
  25 O25           -7.0391    -1.6044    -0.4080 O.2     
  26 C26           -9.0616     0.8811    -1.9160 C.3     
  27 C27           -9.2595    -0.0662     0.3750 C.ar    
  28 C28           -8.6598    -0.5641     1.5167 C.ar    
  29 C29           -9.3272    -1.4834     2.3037 C.ar    
  30 C30          -10.5970    -1.9057     1.9484 C.ar    
  31 C31          -11.1967    -1.4063     0.8047 C.ar    
  32 C32          -10.5295    -0.4831     0.0221 C.ar    
  33 F33          -11.2502    -2.8047     2.7167 F       
  34 H34           -1.3533    -2.2180    -1.8206 H       
  35 H35           -3.3698    -0.8243    -1.6614 H       
  36 H36           -1.1672     2.0930     0.5925 H       
  37 H37           -3.5162     2.6374    -0.3510 H       
  38 H38            2.0614     2.2372     1.6241 H       
  39 H39            0.7951     2.8186     0.5165 H       
  40 H40            0.3451     1.9947     2.0288 H       
  41 H41            0.3079    -3.6252    -0.1628 H       
  42 H42            2.5222    -0.2473    -1.5047 H       
  43 H43            2.8510    -5.2991    -1.4836 H       
  44 H44            4.0073    -4.6627    -0.2893 H       
  45 H45            2.4124    -5.2488     0.2408 H       
  46 H46           -4.4821    -1.1002    -0.3606 H       
  47 H47           -9.7626     2.6475    -0.0161 H       
  48 H48           -8.4498     2.3510     1.1471 H       
  49 H49           -8.1280     3.3657    -1.7107 H       
  50 H50           -7.9450     4.3307    -0.2305 H       
  51 H51           -8.8890    -0.1127    -2.3291 H       
  52 H52          -10.1306     1.0940    -1.9163 H       
  53 H53           -8.5432     1.6224    -2.5242 H       
  54 H54           -7.6691    -0.2349     1.7935 H       
  55 H55           -8.8583    -1.8726     3.1954 H       
  56 H56          -12.1872    -1.7349     0.5265 H       
  57 H57          -10.9971    -0.0934    -0.8701 H       
@<TRIPOS>BOND
   1    1    2 ar
   2    1    9 1
   3    1    6 ar
   4    2    3 ar
   5    2   12 1
   6    3    4 ar
   7    3   34 1
   8    4    5 ar
   9    4   35 1
  10    5    6 ar
  11    5    8 1
  12    6   36 1
  13    7    8 2
  14    7   17 1
  15    7   20 1
  16    8   37 1
  17    9   10 1
  18   10   38 1
  19   10   39 1
  20   10   40 1
  21   11   12 1
  22   11   13 2
  23   11   41 1
  24   12   15 1
  25   13   14 1
  26   13   16 1
  27   14   15 2
  28   15   42 1
  29   16   43 1
  30   16   44 1
  31   16   45 1
  32   17   18 am
  33   17   46 1
  34   18   19 am
  35   18   25 2
  36   19   20 1
  37   19   21 1
  38   20   24 2
  39   21   22 1
  40   21   26 1
  41   21   27 1
  42   22   23 1
  43   22   47 1
  44   22   48 1
  45   23   24 1
  46   23   49 1
  47   23   50 1
  48   26   51 1
  49   26   52 1
  50   26   53 1
  51   27   28 ar
  52   27   32 ar
  53   28   29 ar
  54   28   54 1
  55   29   30 ar
  56   29   55 1
  57   30   31 ar
  58   30   33 1
  59   31   32 ar
  60   31   56 1
  61   32   57 1

#	End of record

