#	Name: ASD01815585
#	Creating user name:	WinNT
#	Creation time:	15. 06. 2019 19:33

#	Modifying user name:	WinNT
#	Modification time:	15. 06. 2019 19:33

#	Program:	/corina/corina34_cracker 3.40 0067  02.08.2006

@<TRIPOS>MOLECULE
ASD01815585
  37   39    0    0    0
SMALL
NO_CHARGES


@<TRIPOS>ATOM
   1 C1            -0.0168     1.3845     0.0097 C.ar    
   2 C2             0.0021    -0.0041     0.0020 C.ar    
   3 C3             1.1978    -0.6920    -0.0131 C.ar    
   4 C4             2.4000     0.0096    -0.0207 C.ar    
   5 C5             2.3717     1.4151    -0.0129 C.ar    
   6 C6             1.1527     2.0926     0.0023 C.ar    
   7 N7             3.6034    -0.6617    -0.0353 N.pl3   
   8 C8             4.7853    -0.0319    -0.0423 C.2     
   9 C9             4.8852     1.3446    -0.0354 C.2     
  10 C10            3.6514     2.1473    -0.0212 C.2     
  11 O11            3.6862     3.3654    -0.0155 O.2     
  12 C12            6.2016     1.9982    -0.0425 C.2     
  13 O13            7.2141     1.3256    -0.0546 O.2     
  14 O14            6.2862     3.3436    -0.0356 O.3     
  15 C15            3.5892    -2.1266    -0.0430 C.3     
  16 C16            3.5714    -2.6213    -1.4663 C.ar    
  17 C17            4.7601    -2.8597    -2.1300 C.ar    
  18 C18            4.7437    -3.3135    -3.4359 C.ar    
  19 C19            3.5387    -3.5293    -4.0775 C.ar    
  20 C20            2.3496    -3.2917    -3.4133 C.ar    
  21 C21            2.3660    -2.8421    -2.1064 C.ar    
  22 Cl22          -1.4947    -0.8834     0.0121 Cl      
  23 C23            6.0398    -3.5725    -4.1599 C.3     
  24 F24            6.4339    -4.8984    -3.9509 F       
  25 F25            5.8616    -3.3493    -5.5294 F       
  26 F26            7.0272    -2.7100    -3.6715 F       
  27 H27           -0.9612     1.9083     0.0170 H       
  28 H28            1.2011    -1.7720    -0.0185 H       
  29 H29            1.1327     3.1724     0.0079 H       
  30 H30            5.6906    -0.6209    -0.0533 H       
  31 H31            7.1736     3.7277    -0.0408 H       
  32 H32            4.4803    -2.5012     0.4607 H       
  33 H33            2.7005    -2.4841     0.4771 H       
  34 H34            5.7017    -2.6911    -1.6287 H       
  35 H35            3.5259    -3.8831    -5.0978 H       
  36 H36            1.4080    -3.4600    -3.9148 H       
  37 H37            1.4371    -2.6566    -1.5875 H       
@<TRIPOS>BOND
   1    1    2 ar
   2    1    6 ar
   3    1   27 1
   4    2    3 ar
   5    2   22 1
   6    3    4 ar
   7    3   28 1
   8    4    5 ar
   9    4    7 1
  10    5    6 ar
  11    5   10 1
  12    6   29 1
  13    7    8 1
  14    7   15 1
  15    8    9 2
  16    8   30 1
  17    9   10 1
  18    9   12 1
  19   10   11 2
  20   12   13 2
  21   12   14 1
  22   14   31 1
  23   15   16 1
  24   15   32 1
  25   15   33 1
  26   16   17 ar
  27   16   21 ar
  28   17   18 ar
  29   17   34 1
  30   18   19 ar
  31   18   23 1
  32   19   20 ar
  33   19   35 1
  34   20   21 ar
  35   20   36 1
  36   21   37 1
  37   23   24 1
  38   23   25 1
  39   23   26 1

#	End of record

