#	Name: ASD01811721
#	Creating user name:	WinNT
#	Creation time:	15. 06. 2019 19:27

#	Modifying user name:	WinNT
#	Modification time:	15. 06. 2019 19:27

#	Program:	/corina/corina34_cracker 3.40 0067  02.08.2006

@<TRIPOS>MOLECULE
ASD01811721
  56   60    0    0    0
SMALL
NO_CHARGES


@<TRIPOS>ATOM
   1 C1            -0.0167     1.3805     0.0096 C.ar    
   2 C2             0.0021    -0.0041     0.0020 C.ar    
   3 C3             1.2075    -0.6836    -0.0127 C.ar    
   4 C4             2.3988     0.0118    -0.0203 C.ar    
   5 C5             2.3881     1.4079    -0.0132 C.ar    
   6 C6             1.1658     2.0836     0.0021 C.ar    
   7 C7            -1.2939    -0.7731     0.0103 C.3     
   8 C8             1.2188    -2.1905    -0.0199 C.3     
   9 C9             1.0853    -2.6871    -1.4364 C.ar    
  10 C10            2.2178    -2.9047    -2.2000 C.ar    
  11 C11            2.1012    -3.3599    -3.4978 C.ar    
  12 C12            0.8399    -3.6002    -4.0383 C.ar    
  13 C13           -0.2975    -3.3794    -3.2648 C.ar    
  14 C14           -0.1692    -2.9291    -1.9664 C.ar    
  15 C15            0.7084    -4.0893    -5.4337 C.2     
  16 N16            1.7072    -4.3470    -6.2968 N.2     
  17 N17            1.2007    -4.7529    -7.4072 N.2     
  18 N18           -0.0833    -4.7805    -7.3328 N.pl3   
  19 C19           -0.4503    -4.3736    -6.0967 C.2     
  20 C20           -0.9941    -5.1899    -8.4048 C.3     
  21 C21            3.4708     2.4102    -0.0183 C.2     
  22 N22            2.9565     3.6521    -0.0072 N.am    
  23 C23            1.4923     3.5561     0.0064 C.3     
  24 O24            4.6581     2.1501    -0.0300 O.2     
  25 C25            3.7301     4.8962    -0.0086 C.3     
  26 C26            3.9849     5.3366    -1.4515 C.3     
  27 O27            2.7472     5.6988    -2.0748 O.3     
  28 C28            2.7745     7.0847    -2.4514 C.3     
  29 C29            4.2764     7.4316    -2.6087 C.3     
  30 C30            4.8964     6.5826    -1.4655 C.3     
  31 H31           -0.9590     1.9081     0.0170 H       
  32 H32            3.3374    -0.5224    -0.0314 H       
  33 H33           -1.6162    -0.9530    -1.0154 H       
  34 H34           -1.1473    -1.7267     0.5176 H       
  35 H35           -2.0556    -0.1960     0.5345 H       
  36 H36            2.1570    -2.5488     0.4038 H       
  37 H37            0.3854    -2.5629     0.5758 H       
  38 H38            3.1951    -2.7177    -1.7801 H       
  39 H39            2.9862    -3.5291    -4.0933 H       
  40 H40           -1.2776    -3.5641    -3.6790 H       
  41 H41           -1.0503    -2.7579    -1.3657 H       
  42 H42           -1.4563    -4.2848    -5.7141 H       
  43 H43           -1.1801    -6.2616    -8.3340 H       
  44 H44           -1.9362    -4.6505    -8.3069 H       
  45 H45           -0.5438    -4.9623    -9.3709 H       
  46 H46            1.0774     4.0343    -0.8809 H       
  47 H47            1.0945     4.0255     0.9061 H       
  48 H48            3.1714     5.6720     0.5149 H       
  49 H49            4.6829     4.7321     0.4949 H       
  50 H50            4.4558     4.5261    -2.0077 H       
  51 H51            2.2516     7.2302    -3.3967 H       
  52 H52            2.3243     7.6979    -1.6708 H       
  53 H53            4.6530     7.1153    -3.5814 H       
  54 H54            4.4529     8.4952    -2.4481 H       
  55 H55            4.8424     7.1134    -0.5150 H       
  56 H56            5.9249     6.3083    -1.7000 H       
@<TRIPOS>BOND
   1    1    2 ar
   2    1    6 ar
   3    1   31 1
   4    2    3 ar
   5    2    7 1
   6    3    4 ar
   7    3    8 1
   8    4    5 ar
   9    4   32 1
  10    5    6 ar
  11    5   21 1
  12    6   23 1
  13    7   33 1
  14    7   34 1
  15    7   35 1
  16    8    9 1
  17    8   36 1
  18    8   37 1
  19    9   10 ar
  20    9   14 ar
  21   10   11 ar
  22   10   38 1
  23   11   12 ar
  24   11   39 1
  25   12   13 ar
  26   12   15 1
  27   13   14 ar
  28   13   40 1
  29   14   41 1
  30   15   16 1
  31   15   19 2
  32   16   17 2
  33   17   18 1
  34   18   19 1
  35   18   20 1
  36   19   42 1
  37   20   43 1
  38   20   44 1
  39   20   45 1
  40   21   22 am
  41   21   24 2
  42   22   23 1
  43   22   25 1
  44   23   46 1
  45   23   47 1
  46   25   26 1
  47   25   48 1
  48   25   49 1
  49   26   27 1
  50   26   30 1
  51   26   50 1
  52   27   28 1
  53   28   29 1
  54   28   51 1
  55   28   52 1
  56   29   30 1
  57   29   53 1
  58   29   54 1
  59   30   55 1
  60   30   56 1

#	End of record

