#	Name: ASD01670012
#	Creating user name:	WinNT
#	Creation time:	15. 06. 2019 19:22

#	Modifying user name:	WinNT
#	Modification time:	15. 06. 2019 19:22

#	Program:	/corina/corina34_cracker 3.40 0067  02.08.2006

@<TRIPOS>MOLECULE
ASD01670012
  16   17    0    0    0
SMALL
NO_CHARGES


@<TRIPOS>ATOM
   1 O1            -0.0171     1.4091     0.0098 O.3     
   2 N2             0.0021    -0.0041     0.0020 N.2     
   3 C3             1.2362    -0.4256    -0.0120 C.2     
   4 C4             2.1026     0.7631    -0.0139 C.ar    
   5 C5             1.2483     1.8765     0.0002 C.ar    
   6 C6             3.4852     0.9469    -0.0255 C.ar    
   7 C7             4.0039     2.2226    -0.0229 C.ar    
   8 C8             3.1588     3.3225    -0.0089 C.ar    
   9 C9             1.7907     3.1555     0.0019 C.ar    
  10 N10            1.6540    -1.7488    -0.0227 N.pl3   
  11 H11            4.1460     0.0927    -0.0360 H       
  12 H12            5.0741     2.3674    -0.0315 H       
  13 H13            3.5765     4.3185    -0.0067 H       
  14 H14            1.1409     4.0181     0.0124 H       
  15 H15            0.9990    -2.4643    -0.0203 H       
  16 H16            2.6010    -1.9583    -0.0326 H       
@<TRIPOS>BOND
   1    1    2 1
   2    1    5 1
   3    2    3 2
   4    3    4 1
   5    3   10 1
   6    4    5 ar
   7    4    6 ar
   8    5    9 ar
   9    6    7 ar
  10    6   11 1
  11    7    8 ar
  12    7   12 1
  13    8    9 ar
  14    8   13 1
  15    9   14 1
  16   10   15 1
  17   10   16 1

#	End of record

