#	Name: ASD00150005
#	Creating user name:	WinNT
#	Creation time:	15. 06. 2019 18:31

#	Modifying user name:	WinNT
#	Modification time:	15. 06. 2019 18:31

#	Program:	/corina/corina34_cracker 3.40 0067  02.08.2006

@<TRIPOS>MOLECULE
ASD00150005
  86   91    0    0    0
SMALL
NO_CHARGES


@<TRIPOS>ATOM
   1 P1            -0.0198     1.6058     0.0109 P.3     
   2 P2            10.3428     2.4156     1.7959 P.3     
   3 P3             2.1671     3.5690     0.3967 P.3     
   4 P4             7.5729     3.3504     2.2854 P.3     
   5 P5             4.9273     4.2124     1.2642 P.3     
   6 O6            -0.0429    -2.6265     1.2405 O.3     
   7 O7            12.3645     2.0104    -2.0993 O.3     
   8 O8            -2.3507    -5.3736     1.0738 O.3     
   9 O9            15.6118     1.0002    -3.2547 O.3     
  10 O10           -2.1473    -3.9524    -1.0959 O.3     
  11 O11           14.5629    -0.5074    -1.4120 O.3     
  12 O12            0.0021    -0.0041     0.0020 O.3     
  13 O13           11.0314     1.8171     0.4694 O.3     
  14 O14            1.4907     2.1630    -0.0006 O.3     
  15 O15            8.7505     2.5110     1.5777 O.3     
  16 O16           -0.7984     2.1391    -1.2935 O.3     
  17 O17           10.6563     1.4502     3.0457 O.3     
  18 O18           -0.7125     2.0831     1.2285 O.2     
  19 O19           10.8853     3.7656     2.0672 O.2     
  20 O20            3.7599     3.3787     0.5333 O.3     
  21 O21            6.2530     3.3044     1.3647 O.3     
  22 O22            1.8528     4.6578    -0.7470 O.3     
  23 O23            7.2459     2.7073     3.7247 O.3     
  24 O24            1.6135     4.0356     1.6875 O.2     
  25 O25            8.0044     4.7553     2.4594 O.2     
  26 O26            5.2502     5.5414     0.4147 O.3     
  27 O27            4.4849     4.5918     2.6247 O.2     
  28 N28           -0.0885    -4.2529     2.9935 N.pl3   
  29 N29           13.3167     3.0460    -4.0336 N.pl3   
  30 N30            0.3068    -3.9119     5.1129 N.2     
  31 N31           13.0505     5.1128    -4.6829 N.2     
  32 N32            0.1725    -6.7317     3.0964 N.ar    
  33 N33           14.1875     2.2177    -6.2197 N.ar    
  34 N34            0.6751    -7.5655     5.1928 N.ar    
  35 N35           14.3405     3.8265    -7.8723 N.ar    
  36 N36            0.9256    -6.1845     7.0886 N.pl3   
  37 N37           13.7203     6.0755    -7.5247 N.pl3   
  38 C38           -1.9227    -4.0363     1.3393 C.3     
  39 C39           14.6710     1.7081    -2.4449 C.3     
  40 C40           -2.0790    -3.1464     0.0822 C.3     
  41 C41           14.2783     0.8767    -1.1994 C.3     
  42 C42           -0.3934    -3.9838     1.5861 C.3     
  43 C43           13.3131     1.8575    -3.1770 C.3     
  44 C44           -0.8037    -2.2815     0.0707 C.3     
  45 C45           12.7600     1.0999    -1.0597 C.3     
  46 C46           -1.1801    -0.7991     0.1135 C.3     
  47 C47           12.4471     1.7063     0.3097 C.3     
  48 C48            0.1436    -5.4840     3.5529 C.ar    
  49 C49           13.7145     3.0998    -5.3455 C.ar    
  50 C50            0.0224    -3.3254     3.9865 C.2     
  51 C51           12.9201     4.2999    -3.6750 C.2     
  52 C52            0.3962    -5.2491     4.9151 C.ar    
  53 C53           13.5378     4.4342    -5.7493 C.ar    
  54 C54            0.6689    -6.3539     5.7393 C.ar    
  55 C55           13.8733     4.7775    -7.0699 C.ar    
  56 C56            0.4337    -7.7364     3.9059 C.ar    
  57 C57           14.4875     2.5848    -7.4478 C.ar    
  58 H58           -2.4683    -3.6157     2.1839 H       
  59 H59           15.0659     2.6816    -2.1540 H       
  60 H60           -2.9668    -2.5196     0.1665 H       
  61 H61           14.8025     1.2418    -0.3162 H       
  62 H62            0.1267    -4.6909     0.9399 H       
  63 H63           13.0892     0.9652    -3.7616 H       
  64 H64           -0.2209    -2.4922    -0.8259 H       
  65 H65           12.2338     0.1526    -1.1768 H       
  66 H66           -1.6790    -0.5780     1.0570 H       
  67 H67           -1.8511    -0.5706    -0.7146 H       
  68 H68           12.8993     2.6955     0.3809 H       
  69 H69           12.8519     1.0646     1.0923 H       
  70 H70           -3.2824    -5.4464     0.8254 H       
  71 H71           16.4462     0.8033    -2.8074 H       
  72 H72           -2.9001    -4.5591    -1.1143 H       
  73 H73           15.4987    -0.6977    -1.5644 H       
  74 H74           -0.1062    -2.2609     3.8572 H       
  75 H75           12.5513     4.5777    -2.6986 H       
  76 H76            0.4495    -8.7382     3.5027 H       
  77 H77           14.8698     1.8429    -8.1333 H       
  78 H78            1.1129    -6.9551     7.6471 H       
  79 H79            0.9183    -5.2952     7.4757 H       
  80 H80           13.9551     6.3001    -8.4386 H       
  81 H81           13.3783     6.7608    -6.9294 H       
  82 H82           -0.3990     1.8638    -2.1300 H       
  83 H83           10.3286     0.5470     2.9368 H       
  84 H84            2.1875     4.4172    -1.6217 H       
  85 H85            6.9563     1.7854     3.6870 H       
  86 H86            5.5465     5.3681    -0.4893 H       
@<TRIPOS>BOND
   1    1   12 1
   2    1   14 1
   3    1   16 1
   4    1   18 2
   5    2   13 1
   6    2   15 1
   7    2   17 1
   8    2   19 2
   9    3   14 1
  10    3   20 1
  11    3   22 1
  12    3   24 2
  13    4   15 1
  14    4   21 1
  15    4   23 1
  16    4   25 2
  17    5   20 1
  18    5   21 1
  19    5   26 1
  20    5   27 2
  21    6   42 1
  22    6   44 1
  23    7   43 1
  24    7   45 1
  25    8   70 1
  26    8   38 1
  27    9   71 1
  28    9   39 1
  29   10   72 1
  30   10   40 1
  31   11   73 1
  32   11   41 1
  33   12   46 1
  34   13   47 1
  35   16   82 1
  36   17   83 1
  37   22   84 1
  38   23   85 1
  39   26   86 1
  40   28   48 1
  41   28   50 1
  42   28   42 1
  43   29   49 1
  44   29   51 1
  45   29   43 1
  46   30   50 2
  47   30   52 1
  48   31   51 2
  49   31   53 1
  50   32   48 ar
  51   32   56 ar
  52   33   49 ar
  53   33   57 ar
  54   34   54 ar
  55   34   56 ar
  56   35   55 ar
  57   35   57 ar
  58   36   54 1
  59   36   78 1
  60   36   79 1
  61   37   55 1
  62   37   80 1
  63   37   81 1
  64   38   40 1
  65   38   58 1
  66   38   42 1
  67   39   41 1
  68   39   59 1
  69   39   43 1
  70   40   44 1
  71   40   60 1
  72   41   45 1
  73   41   61 1
  74   42   62 1
  75   43   63 1
  76   44   46 1
  77   44   64 1
  78   45   47 1
  79   45   65 1
  80   46   66 1
  81   46   67 1
  82   47   68 1
  83   47   69 1
  84   48   52 ar
  85   49   53 ar
  86   50   74 1
  87   51   75 1
  88   52   54 ar
  89   53   55 ar
  90   56   76 1
  91   57   77 1

#	End of record

