#	Name: ASD01882598
#	Creating user name:	WinNT
#	Creation time:	15. 06. 2019 19:44

#	Modifying user name:	WinNT
#	Modification time:	15. 06. 2019 19:44

#	Program:	/corina/corina34_cracker 3.40 0067  02.08.2006

@<TRIPOS>MOLECULE
ASD01882598
  53   57    0    0    0
SMALL
NO_CHARGES


@<TRIPOS>ATOM
   1 C1             0.0717     1.3102     0.5644 C.2     
   2 C2             0.0111    -0.0129     0.0862 C.2     
   3 C3             1.1210    -0.5700    -0.4688 C.2     
   4 C4             2.3072     0.1786    -0.5573 C.2     
   5 C5             2.3505     1.4456    -0.0943 C.2     
   6 N6             1.2451     2.0168     0.4642 N.pl3   
   7 N7            -0.2585     3.2463     1.3918 N.2     
   8 N8            -0.8115     2.1130     1.1353 N.2     
   9 C9             0.9904     3.2399     1.0030 C.2     
  10 C10           -1.2682    -0.8027     0.1888 C.3     
  11 F11           -1.1800    -1.6962     1.2616 F       
  12 F12           -2.3405     0.0715     0.3970 F       
  13 F13           -1.4720    -1.5165    -0.9970 F       
  14 C14            1.0790    -1.9846    -0.9866 C.3     
  15 N15            0.7758    -1.9712    -2.4239 N.3     
  16 C16            0.9586    -3.3050    -3.0131 C.3     
  17 C17            0.5575    -3.2668    -4.4897 C.3     
  18 N18            1.3755    -2.2677    -5.1911 N.3     
  19 C19            1.1927    -0.9339    -4.6019 C.3     
  20 C20            1.5938    -0.9721    -3.1254 C.3     
  21 C21            1.0883    -2.2550    -6.5525 C.ar    
  22 C22            1.7626    -1.3727    -7.3905 C.ar    
  23 C23            1.4684    -1.3702    -8.7419 C.ar    
  24 C24            0.5045    -2.2549    -9.2125 C.ar    
  25 C25           -0.1259    -3.1039    -8.3224 C.ar    
  26 N26            0.1802    -3.0862    -7.0385 N.ar    
  27 F27            0.1872    -2.2841   -10.5254 F       
  28 C28            1.9679     4.3802     1.1268 C.3     
  29 C29            1.8949     5.2530    -0.1276 C.3     
  30 C30            2.7305     6.5346    -0.1461 C.3     
  31 C31            3.1467     5.3375    -1.0033 C.3     
  32 H32            3.1890    -0.2626    -0.9978 H       
  33 H33            3.2674     2.0116    -0.1670 H       
  34 H34            2.0462    -2.4600    -0.8237 H       
  35 H35            0.3063    -2.5424    -0.4574 H       
  36 H36            2.0045    -3.6000    -2.9280 H       
  37 H37            0.3333    -4.0248    -2.4849 H       
  38 H38            0.7197    -4.2479    -4.9360 H       
  39 H39           -0.4956    -2.9984    -4.5736 H       
  40 H40            1.8180    -0.2141    -5.1301 H       
  41 H41            0.1468    -0.6389    -4.6871 H       
  42 H42            1.4316     0.0090    -2.6790 H       
  43 H43            2.6469    -1.2405    -3.0415 H       
  44 H44            2.5056    -0.6985    -6.9910 H       
  45 H45            1.9756    -0.6961    -9.4163 H       
  46 H46           -0.8754    -3.7931    -8.6825 H       
  47 H47            1.7176     4.9800     2.0019 H       
  48 H48            2.9773     3.9833     1.2351 H       
  49 H49            0.9273     5.2759    -0.6288 H       
  50 H50            2.3127     7.4004    -0.6598 H       
  51 H51            3.3322     6.7559     0.7354 H       
  52 H52            4.0223     4.7713    -0.6857 H       
  53 H53            3.0028     5.4158    -2.0809 H       
@<TRIPOS>BOND
   1    1    2 1
   2    1    6 1
   3    1    8 2
   4    2    3 2
   5    2   10 1
   6    3    4 1
   7    3   14 1
   8    4    5 2
   9    4   32 1
  10    5    6 1
  11    5   33 1
  12    6    9 1
  13    7    8 1
  14    7    9 2
  15    9   28 1
  16   10   11 1
  17   10   12 1
  18   10   13 1
  19   14   15 1
  20   14   34 1
  21   14   35 1
  22   15   16 1
  23   15   20 1
  24   16   17 1
  25   16   36 1
  26   16   37 1
  27   17   18 1
  28   17   38 1
  29   17   39 1
  30   18   19 1
  31   18   21 1
  32   19   20 1
  33   19   40 1
  34   19   41 1
  35   20   42 1
  36   20   43 1
  37   21   22 ar
  38   21   26 ar
  39   22   23 ar
  40   22   44 1
  41   23   24 ar
  42   23   45 1
  43   24   25 ar
  44   24   27 1
  45   25   26 ar
  46   25   46 1
  47   28   29 1
  48   28   47 1
  49   28   48 1
  50   29   30 1
  51   29   31 1
  52   29   49 1
  53   30   31 1
  54   30   50 1
  55   30   51 1
  56   31   52 1
  57   31   53 1

#	End of record

