#	Name: ASD00069451
#	Creating user name:	WinNT
#	Creation time:	15. 06. 2019 18:29

#	Modifying user name:	WinNT
#	Modification time:	15. 06. 2019 18:29

#	Program:	/corina/corina34_cracker 3.40 0067  02.08.2006

@<TRIPOS>MOLECULE
ASD00069451
  53   57    0    0    0
SMALL
NO_CHARGES


@<TRIPOS>ATOM
   1 C1            -0.3617     1.0535     0.1372 C.ar    
   2 C2            -0.0111    -0.2864     0.0587 C.ar    
   3 C3             1.3315    -0.6468    -0.0485 C.ar    
   4 C4             2.3100     0.3380    -0.0760 C.ar    
   5 C5             1.9503     1.6723     0.0029 C.ar    
   6 C6             0.6184     2.0280     0.1092 C.ar    
   7 N7             1.6921    -1.9980    -0.1278 N.3     
   8 N8            -1.0031    -1.2745     0.0874 N.am    
   9 C9            -2.1165    -1.0904     0.8243 C.2     
  10 C10           -3.2160    -2.0702     0.7561 C.2     
  11 O11           -2.2141    -0.1160     1.5456 O.2     
  12 N12           -4.3923    -1.9996     1.4498 N.pl3   
  13 C13           -5.1266    -3.0822     1.1098 C.2     
  14 C14           -4.3881    -3.8013     0.2113 C.2     
  15 N15           -3.2322    -3.1551     0.0141 N.2     
  16 C16           -4.7980    -5.0716    -0.4355 C.ar    
  17 C17           -6.0772    -5.5994    -0.2351 C.ar    
  18 C18           -6.4172    -6.7833    -0.8555 C.ar    
  19 N19           -5.5541    -7.4154    -1.6282 N.ar    
  20 C20           -4.3378    -6.9516    -1.8432 C.ar    
  21 C21           -3.9180    -5.7707    -1.2665 C.ar    
  22 C22           -3.3967    -7.7187    -2.7359 C.3     
  23 F23            3.6124    -0.0060    -0.1793 F       
  24 C24            2.5561    -2.3862     1.0161 C.3     
  25 C25            3.2859    -3.6600     0.5414 C.3     
  26 C26            3.2712    -3.5730    -1.0087 C.3     
  27 C27            2.5339    -2.2549    -1.3240 C.3     
  28 C28            4.7754    -3.5542     0.9295 C.3     
  29 N29            5.5128    -4.0087    -0.2769 N.3     
  30 C30            4.7532    -3.4228    -1.4106 C.3     
  31 H31           -1.4012     1.3357     0.2158 H       
  32 H32            2.7121     2.4376    -0.0182 H       
  33 H33            0.3428     3.0705     0.1701 H       
  34 H34           -0.8889    -2.0914    -0.4230 H       
  35 H35           -4.6517    -1.3018     2.0716 H       
  36 H36           -6.1106    -3.3321     1.4781 H       
  37 H37           -6.7883    -5.0878     0.3965 H       
  38 H38           -7.4029    -7.1988    -0.7068 H       
  39 H39           -2.9211    -5.3967    -1.4471 H       
  40 H40           -3.5138    -7.3788    -3.7649 H       
  41 H41           -2.3698    -7.5495    -2.4121 H       
  42 H42           -3.6258    -8.7827    -2.6765 H       
  43 H43            3.2745    -1.5962     1.2346 H       
  44 H44            1.9485    -2.6019     1.8949 H       
  45 H45            2.8156    -4.5705     0.9127 H       
  46 H46            2.7930    -4.4368    -1.4706 H       
  47 H47            1.9095    -2.3716    -2.2098 H       
  48 H48            3.2489    -1.4446    -1.4664 H       
  49 H49            5.0337    -2.5220     1.1661 H       
  50 H50            4.9943    -4.2049     1.7761 H       
  51 H51            6.4642    -3.6728    -0.2670 H       
  52 H52            4.9554    -3.9745    -2.3287 H       
  53 H53            5.0081    -2.3704    -1.5350 H       
@<TRIPOS>BOND
   1    1    2 ar
   2    1    6 ar
   3    1   31 1
   4    2    3 ar
   5    2    8 1
   6    3    4 ar
   7    3    7 1
   8    4    5 ar
   9    4   23 1
  10    5    6 ar
  11    5   32 1
  12    6   33 1
  13    7   24 1
  14    7   27 1
  15    8    9 am
  16    8   34 1
  17    9   10 1
  18    9   11 2
  19   10   12 1
  20   10   15 2
  21   12   13 1
  22   12   35 1
  23   13   14 2
  24   13   36 1
  25   14   15 1
  26   14   16 1
  27   16   17 ar
  28   16   21 ar
  29   17   18 ar
  30   17   37 1
  31   18   19 ar
  32   18   38 1
  33   19   20 ar
  34   20   21 ar
  35   20   22 1
  36   21   39 1
  37   22   40 1
  38   22   41 1
  39   22   42 1
  40   24   25 1
  41   24   43 1
  42   24   44 1
  43   25   26 1
  44   25   28 1
  45   25   45 1
  46   26   27 1
  47   26   30 1
  48   26   46 1
  49   27   47 1
  50   27   48 1
  51   28   29 1
  52   28   49 1
  53   28   50 1
  54   29   30 1
  55   29   51 1
  56   30   52 1
  57   30   53 1

#	End of record

