#	Name: ASD05430274
#	Creating user name:	WinNT
#	Creation time:	15. 06. 2019 21:00

#	Modifying user name:	WinNT
#	Modification time:	15. 06. 2019 21:00

#	Program:	/corina/corina34_cracker 3.40 0067  02.08.2006

@<TRIPOS>MOLECULE
ASD05430274
  82   88    0    0    0
SMALL
NO_CHARGES


@<TRIPOS>ATOM
   1 C1             0.1086     1.0382     0.5349 C.ar    
   2 C2             0.0310    -0.0140    -0.3482 C.ar    
   3 C3             1.1413    -0.3675    -1.1123 C.ar    
   4 C4             2.3051     0.3538    -0.9639 C.ar    
   5 C5             2.3746     1.4236    -0.0771 C.ar    
   6 C6             1.2520     1.8052     0.7001 C.ar    
   7 C7             4.8621     0.0040     0.0552 C.3     
   8 C8             4.8116     1.5156     0.0563 C.2     
   9 C9             3.6348     2.1721     0.0561 C.2     
  10 C10            6.2203    -0.4760     0.5578 C.3     
  11 C11            6.8956     0.4651     1.5537 C.3     
  12 N12            7.0870     1.7720     0.9216 N.pl3   
  13 C13            6.0884     2.2461     0.0582 C.2     
  14 N14           -1.1655    -0.7311    -0.4789 N.pl3   
  15 C15           -1.3271    -2.0832    -0.3184 C.2     
  16 C16           -2.6296    -2.3485    -0.5338 C.2     
  17 N17           -3.2508    -1.1943    -0.8183 N.2     
  18 C18           -2.3858    -0.2174    -0.7828 C.2     
  19 C19           -3.2774    -3.7075    -0.4668 C.3     
  20 C20            8.2647     2.5956     1.1896 C.3     
  21 C21            8.7211     3.2472    -0.1208 C.3     
  22 N22            7.5688     3.8549    -0.7906 N.pl3   
  23 N23            6.3040     3.2593    -0.7199 N.2     
  24 C24            7.9151     3.6662     2.1910 C.ar    
  25 C25            8.8777     4.5703     2.5999 C.ar    
  26 C26            7.2736     5.6305     4.0289 C.ar    
  27 C27            6.3087     4.7285     3.6136 C.ar    
  28 C28            6.6306     3.7469     2.6957 C.ar    
  29 C29            8.5583     5.5522     3.5185 C.ar    
  30 F30            6.9600     6.5908     4.9259 F       
  31 C31            7.7418     5.1002    -1.5425 C.3     
  32 C32            9.3886     1.7181     1.7445 C.3     
  33 C33            0.0770     2.8702     2.7240 C.3     
  34 Si34          -1.1308     1.7748     1.7562 Si      
  35 C35            6.2113    -1.9413     1.0224 C.3     
  36 N36            7.5062    -2.0681     0.3170 N.3     
  37 C37            7.1572    -0.9362    -0.5704 C.3     
  38 C38            1.1933     2.9698     1.6553 C.3     
  39 C39           -2.4343     2.7852     0.8898 C.3     
  40 C40           -1.8918     0.4643     2.8398 C.3     
  41 C41           -4.4504    -3.6655     0.5147 C.3     
  42 H42            1.0903    -1.1922    -1.8077 H       
  43 H43            3.1758     0.0852    -1.5436 H       
  44 H44            4.0783    -0.3843     0.7056 H       
  45 H45            4.7020    -0.3622    -0.9589 H       
  46 H46            3.6164     3.2475     0.1536 H       
  47 H47            6.2652     0.5756     2.4360 H       
  48 H48            7.8630     0.0554     1.8441 H       
  49 H49           -0.5574    -2.7982    -0.0679 H       
  50 H50           -2.6025     0.8238    -0.9709 H       
  51 H51           -3.6411    -3.9858    -1.4559 H       
  52 H52           -2.5467    -4.4421    -0.1284 H       
  53 H53            9.4632     4.0160     0.0948 H       
  54 H54            9.1606     2.4895    -0.7696 H       
  55 H55            9.8797     4.5091     2.2016 H       
  56 H56            5.3050     4.7918     4.0072 H       
  57 H57            5.8783     3.0428     2.3722 H       
  58 H58            9.3106     6.2580     3.8383 H       
  59 H59            7.9926     4.8679    -2.5775 H       
  60 H60            6.8156     5.6742    -1.5131 H       
  61 H61            8.5461     5.6852    -1.0964 H       
  62 H62            9.6426     0.9489     1.0152 H       
  63 H63           10.2657     2.3338     1.9437 H       
  64 H64            9.0580     1.2464     2.6699 H       
  65 H65           -0.3551     3.8461     2.9455 H       
  66 H66            0.4304     2.3762     3.6291 H       
  67 H67            6.2865    -2.0599     2.1033 H       
  68 H68            5.4113    -2.5367     0.5825 H       
  69 H69            8.2744    -1.8272     0.9252 H       
  70 H70            6.6359    -1.2354    -1.4797 H       
  71 H71            7.9861    -0.2539    -0.7588 H       
  72 H72            2.1535     3.0469     2.1654 H       
  73 H73            1.0396     3.8820     1.0788 H       
  74 H74           -1.9568     3.4709     0.1899 H       
  75 H75           -3.1070     2.1215     0.3465 H       
  76 H76           -3.0018     3.3544     1.6260 H       
  77 H77           -2.5090     0.9376     3.6034 H       
  78 H78           -2.5094    -0.1966     2.2316 H       
  79 H79           -1.1022    -0.1150     3.3185 H       
  80 H80           -4.0867    -3.3872     1.5038 H       
  81 H81           -5.1812    -2.9309     0.1763 H       
  82 H82           -4.9190    -4.6484     0.5632 H       
@<TRIPOS>BOND
   1    1    2 ar
   2    1    6 ar
   3    1   34 1
   4    2    3 ar
   5    2   14 1
   6    3    4 ar
   7    3   42 1
   8    4    5 ar
   9    4   43 1
  10    5    6 ar
  11    5    9 1
  12    6   38 1
  13    7    8 1
  14    7   10 1
  15    7   44 1
  16    7   45 1
  17    8    9 2
  18    8   13 1
  19    9   46 1
  20   10   11 1
  21   10   35 1
  22   10   37 1
  23   11   12 1
  24   11   47 1
  25   11   48 1
  26   12   13 1
  27   12   20 1
  28   13   23 2
  29   14   15 1
  30   14   18 1
  31   15   16 2
  32   15   49 1
  33   16   17 1
  34   16   19 1
  35   17   18 2
  36   18   50 1
  37   19   41 1
  38   19   51 1
  39   19   52 1
  40   20   21 1
  41   20   24 1
  42   20   32 1
  43   21   22 1
  44   21   53 1
  45   21   54 1
  46   22   23 1
  47   22   31 1
  48   24   25 ar
  49   24   28 ar
  50   25   29 ar
  51   25   55 1
  52   26   27 ar
  53   26   30 1
  54   26   29 ar
  55   27   28 ar
  56   27   56 1
  57   28   57 1
  58   29   58 1
  59   31   59 1
  60   31   60 1
  61   31   61 1
  62   32   62 1
  63   32   63 1
  64   32   64 1
  65   33   34 1
  66   33   38 1
  67   33   65 1
  68   33   66 1
  69   34   39 1
  70   34   40 1
  71   35   36 1
  72   35   67 1
  73   35   68 1
  74   36   37 1
  75   36   69 1
  76   37   70 1
  77   37   71 1
  78   38   72 1
  79   38   73 1
  80   39   74 1
  81   39   75 1
  82   39   76 1
  83   40   77 1
  84   40   78 1
  85   40   79 1
  86   41   80 1
  87   41   81 1
  88   41   82 1

#	End of record

