#	Name: ASD08170760
#	Creating user name:	WinNT
#	Creation time:	15. 06. 2019 21:17

#	Modifying user name:	WinNT
#	Modification time:	15. 06. 2019 21:17

#	Program:	/corina/corina34_cracker 3.40 0067  02.08.2006

@<TRIPOS>MOLECULE
ASD08170760
  62   65    0    0    0
SMALL
NO_CHARGES


@<TRIPOS>ATOM
   1 C1            -0.0167     1.3781     0.0096 C.ar    
   2 C2             0.0021    -0.0041     0.0020 C.ar    
   3 C3             1.2084    -0.6789    -0.0132 C.ar    
   4 C4             1.2289    -2.1857    -0.0210 C.3     
   5 C5             1.2217    -2.6884    -1.4660 C.3     
   6 N6             1.3618    -4.1466    -1.4765 N.pl3   
   7 C7             2.1605    -4.7597    -2.4304 C.2     
   8 S8             2.4440    -6.4942    -2.5928 S.3     
   9 C9             3.4888    -6.1589    -3.9750 C.2     
  10 C10            4.2233    -7.1831    -4.8011 C.3     
  11 C11            5.6077    -7.4277    -4.1973 C.3     
  12 C12            6.3534    -8.4676    -5.0359 C.3     
  13 C13            7.7378    -8.7122    -4.4321 C.3     
  14 C14            8.4723    -9.7365    -5.2582 C.2     
  15 S15            8.4402   -11.4842    -5.0151 S.3     
  16 C16            9.5274   -11.6611    -6.3943 C.2     
  17 N17           10.0242   -12.8544    -6.8972 N.pl3   
  18 C18           10.9223   -12.8441    -8.0545 C.3     
  19 C19           11.9572   -13.9612    -7.9069 C.3     
  20 C20           12.9546   -13.8741    -9.0333 C.ar    
  21 O21           -0.0106    -2.3238    -2.0910 O.3     
  22 N22            2.8319    -4.1598    -3.3714 N.2     
  23 N23            3.5117    -4.8783    -4.1536 N.2     
  24 N24            9.2335    -9.4911    -6.2745 N.2     
  25 N25            9.7783   -10.4690    -6.8550 N.2     
  26 O26           10.1641   -13.0519    -9.2478 O.3     
  27 C27           14.0979   -13.1111    -8.8866 C.ar    
  28 C28            1.1709     2.0855     0.0021 C.ar    
  29 C29            2.3773     1.4107    -0.0131 C.ar    
  30 C30            2.3960     0.0285    -0.0217 C.ar    
  31 C31           12.7289   -14.5617   -10.2110 C.ar    
  32 C32           13.6438   -14.4818   -11.2442 C.ar    
  33 C33           14.7841   -13.7139   -11.0999 C.ar    
  34 C34           15.0128   -13.0311    -9.9198 C.ar    
  35 H35           -0.9592     1.9054     0.0170 H       
  36 H36           -0.9258    -0.5567     0.0083 H       
  37 H37            2.1287    -2.5395     0.4823 H       
  38 H38            0.3490    -2.5637     0.4996 H       
  39 H39            2.0522    -2.2396    -2.0109 H       
  40 H40            0.8961    -4.6834    -0.8162 H       
  41 H41            3.6599    -8.1162    -4.8079 H       
  42 H42            4.3318    -6.8166    -5.8219 H       
  43 H43            6.1711    -6.4947    -4.1904 H       
  44 H44            5.4993    -7.7942    -3.1765 H       
  45 H45            5.7900    -9.4007    -5.0428 H       
  46 H46            6.4619    -8.1011    -6.0567 H       
  47 H47            8.3012    -7.7792    -4.4253 H       
  48 H48            7.6294    -9.0787    -3.4113 H       
  49 H49            9.7769   -13.6957    -6.4826 H       
  50 H50           11.4317   -11.8820    -8.1106 H       
  51 H51           12.4751   -13.8531    -6.9539 H       
  52 H52           11.4553   -14.9282    -7.9400 H       
  53 H53           -0.7943    -2.6889    -1.6580 H       
  54 H54            9.6832   -13.8906    -9.2672 H       
  55 H55           14.2763   -12.5771    -7.9649 H       
  56 H56            1.1563     3.1654     0.0077 H       
  57 H57            3.3051     1.9634    -0.0197 H       
  58 H58            3.3385    -0.4987    -0.0332 H       
  59 H59           11.8380   -15.1617   -10.3238 H       
  60 H60           13.4678   -15.0196   -12.1641 H       
  61 H61           15.4991   -13.6518   -11.9070 H       
  62 H62           15.9037   -12.4312    -9.8070 H       
@<TRIPOS>BOND
   1    1    2 ar
   2    1   28 ar
   3    1   35 1
   4    2    3 ar
   5    2   36 1
   6    3    4 1
   7    3   30 ar
   8    4    5 1
   9    4   37 1
  10    4   38 1
  11    5    6 1
  12    5   21 1
  13    5   39 1
  14    6    7 1
  15    6   40 1
  16    7    8 1
  17    7   22 2
  18    8    9 1
  19    9   10 1
  20    9   23 2
  21   10   11 1
  22   10   41 1
  23   10   42 1
  24   11   12 1
  25   11   43 1
  26   11   44 1
  27   12   13 1
  28   12   45 1
  29   12   46 1
  30   13   14 1
  31   13   47 1
  32   13   48 1
  33   14   15 1
  34   14   24 2
  35   15   16 1
  36   16   17 1
  37   16   25 2
  38   17   18 1
  39   17   49 1
  40   18   19 1
  41   18   26 1
  42   18   50 1
  43   19   20 1
  44   19   51 1
  45   19   52 1
  46   20   27 ar
  47   20   31 ar
  48   21   53 1
  49   22   23 1
  50   24   25 1
  51   26   54 1
  52   27   34 ar
  53   27   55 1
  54   28   29 ar
  55   28   56 1
  56   29   30 ar
  57   29   57 1
  58   30   58 1
  59   31   32 ar
  60   31   59 1
  61   32   33 ar
  62   32   60 1
  63   33   34 ar
  64   33   61 1
  65   34   62 1

#	End of record

