#	Name: ASD03320100
#	Creating user name:	WinNT
#	Creation time:	15. 06. 2019 20:36

#	Modifying user name:	WinNT
#	Modification time:	15. 06. 2019 20:36

#	Program:	/corina/corina34_cracker 3.40 0067  02.08.2006

@<TRIPOS>MOLECULE
ASD03320100
  45   47    0    0    0
SMALL
NO_CHARGES


@<TRIPOS>ATOM
   1 C1            -0.0181     1.4706     0.0148 C.2     
   2 C2             0.0015    -0.0045     0.0117 C.ar    
   3 C3             1.2205    -0.7002     0.0012 C.ar    
   4 C4             1.1911    -2.0690    -0.0013 C.ar    
   5 C5            -0.0388    -2.7267     0.0066 C.ar    
   6 N6            -1.1758    -2.0449     0.0165 N.ar    
   7 C7            -1.1918    -0.7281     0.0250 C.ar    
   8 O8             1.0269     2.0925     0.0082 O.2     
   9 N9            -1.1941     2.1289     0.0193 N.am    
  10 N10           -0.0728    -4.1113     0.0036 N.3     
  11 C11           -1.4662    -4.6073     0.0131 C.3     
  12 C12           -1.4769    -5.9084     0.8368 C.3     
  13 C13           -0.0185    -6.0962     1.3140 C.3     
  14 C14            0.5614    -4.6620     1.2287 C.3     
  15 C15           -1.9051    -7.0877    -0.0389 C.3     
  16 O16           -2.0216    -8.2620     0.7671 O.3     
  17 C17           -1.2149     3.5246     0.1327 C.ar    
  18 C18           -2.1832     4.2615    -0.5363 C.ar    
  19 C19           -2.2033     5.6376    -0.4236 C.ar    
  20 C20           -1.2562     6.2839     0.3573 C.ar    
  21 C21           -0.2883     5.5484     1.0255 C.ar    
  22 C22           -0.2707     4.1718     0.9187 C.ar    
  23 O23           -1.2764     7.6390     0.4674 O.3     
  24 C24           -0.2715     8.2383     1.2878 C.3     
  25 F25           -0.3864     7.7532     2.5950 F       
  26 F26            0.9937     7.9210     0.7822 F       
  27 Cl27          -0.4862    10.0284     1.2901 Cl      
  28 Br28           2.8026    -3.0584    -0.0160 Br      
  29 H29            2.1602    -0.1679    -0.0051 H       
  30 H30           -2.1360    -0.2040     0.0377 H       
  31 H31           -2.0262     1.6360    -0.0560 H       
  32 H32           -2.1200    -3.8688     0.4770 H       
  33 H33           -1.7950    -4.8103    -1.0061 H       
  34 H34           -2.1451    -5.8092     1.6922 H       
  35 H35            0.0074    -6.4623     2.3404 H       
  36 H36            0.5211    -6.7707     0.6491 H       
  37 H37            1.6456    -4.6912     1.1207 H       
  38 H38            0.2765    -4.0792     2.1046 H       
  39 H39           -2.8676    -6.8669    -0.5004 H       
  40 H40           -1.1589    -7.2530    -0.8161 H       
  41 H41           -2.2904    -9.0507     0.2765 H       
  42 H42           -2.9202     3.7586    -1.1448 H       
  43 H43           -2.9564     6.2110    -0.9438 H       
  44 H44            0.4492     6.0523     1.6326 H       
  45 H45            0.4803     3.5989     1.4425 H       
@<TRIPOS>BOND
   1    1    2 1
   2    1    8 2
   3    1    9 am
   4    2    3 ar
   5    2    7 ar
   6    3    4 ar
   7    3   29 1
   8    4    5 ar
   9    4   28 1
  10    5    6 ar
  11    5   10 1
  12    6    7 ar
  13    7   30 1
  14    9   17 1
  15    9   31 1
  16   10   11 1
  17   10   14 1
  18   11   12 1
  19   11   32 1
  20   11   33 1
  21   12   13 1
  22   12   15 1
  23   12   34 1
  24   13   14 1
  25   13   35 1
  26   13   36 1
  27   14   37 1
  28   14   38 1
  29   15   16 1
  30   15   39 1
  31   15   40 1
  32   16   41 1
  33   17   18 ar
  34   17   22 ar
  35   18   19 ar
  36   18   42 1
  37   19   20 ar
  38   19   43 1
  39   20   21 ar
  40   20   23 1
  41   21   22 ar
  42   21   44 1
  43   22   45 1
  44   23   24 1
  45   24   25 1
  46   24   26 1
  47   24   27 1

#	End of record

