#	Name: ASD01908168
#	Creating user name:	WinNT
#	Creation time:	15. 06. 2019 19:54

#	Modifying user name:	WinNT
#	Modification time:	15. 06. 2019 19:54

#	Program:	/corina/corina34_cracker 3.40 0067  02.08.2006

@<TRIPOS>MOLECULE
ASD01908168
  34   35    0    0    0
SMALL
NO_CHARGES


@<TRIPOS>ATOM
   1 C1            -0.0144     1.2095     0.0087 C.2     
   2 O2             0.0021    -0.0041     0.0020 O.2     
   3 N3             2.6978     3.6097    -0.0056 N.pl3   
   4 N4             3.4030     2.4013    -0.0183 N.2     
   5 C5             2.5518     1.4135    -0.0147 C.2     
   6 C6             1.2471     1.9609     0.0007 C.2     
   7 C7             1.3842     3.3377     0.0059 C.2     
   8 C8             3.2942     4.9478     0.0005 C.3     
   9 C9             4.2502     5.0665     1.1593 C.ar    
  10 C10            5.5802     4.7263     0.9944 C.ar    
  11 C11            6.4586     4.8342     2.0552 C.ar    
  12 C12            6.0052     5.2842     3.2867 C.ar    
  13 C13            4.6703     5.6249     3.4495 C.ar    
  14 C14            3.7971     5.5206     2.3841 C.ar    
  15 O15            6.8673     5.3908     4.3318 O.3     
  16 C16            6.3307     5.8611     5.5700 C.3     
  17 C17            2.8971    -0.0534    -0.0256 C.3     
  18 C18            3.0278    -0.5572     1.4132 C.3     
  19 Cl19          -1.5294     2.0569     0.0205 Cl      
  20 H20            0.5816     4.0602     0.0178 H       
  21 H21            3.8330     5.1097    -0.9331 H       
  22 H22            2.5075     5.6957     0.1004 H       
  23 H23            5.9325     4.3757     0.0356 H       
  24 H24            7.4973     4.5681     1.9259 H       
  25 H25            4.3149     5.9754     4.4073 H       
  26 H26            2.7588     5.7902     2.5091 H       
  27 H27            5.5453     5.1842     5.9060 H       
  28 H28            7.1226     5.8988     6.3181 H       
  29 H29            5.9152     6.8590     5.4302 H       
  30 H30            2.1091    -0.6083    -0.5347 H       
  31 H31            3.8416    -0.2005    -0.5493 H       
  32 H32            3.8158    -0.0022     1.9223 H       
  33 H33            2.0833    -0.4101     1.9369 H       
  34 H34            3.2775    -1.6182     1.4053 H       
@<TRIPOS>BOND
   1    1    2 2
   2    1    6 1
   3    1   19 1
   4    3    4 1
   5    3    7 1
   6    3    8 1
   7    4    5 2
   8    5    6 1
   9    5   17 1
  10    6    7 2
  11    7   20 1
  12    8    9 1
  13    8   21 1
  14    8   22 1
  15    9   10 ar
  16    9   14 ar
  17   10   11 ar
  18   10   23 1
  19   11   12 ar
  20   11   24 1
  21   12   13 ar
  22   12   15 1
  23   13   14 ar
  24   13   25 1
  25   14   26 1
  26   15   16 1
  27   16   27 1
  28   16   28 1
  29   16   29 1
  30   17   18 1
  31   17   30 1
  32   17   31 1
  33   18   32 1
  34   18   33 1
  35   18   34 1

#	End of record

