#	Name: ASD01410464
#	Creating user name:	WinNT
#	Creation time:	15. 06. 2019 19:17

#	Modifying user name:	WinNT
#	Modification time:	15. 06. 2019 19:17

#	Program:	/corina/corina34_cracker 3.40 0067  02.08.2006

@<TRIPOS>MOLECULE
ASD01410464
  76   79    0    0    0
SMALL
NO_CHARGES


@<TRIPOS>ATOM
   1 C1            15.7815     2.0544    -5.2328 C.3     
   2 O2            15.0196     2.7064    -6.2508 O.3     
   3 C3            13.9589     2.0275    -6.7566 C.ar    
   4 C4            13.1760     2.6049    -7.7494 C.ar    
   5 C5            12.0989     1.9194    -8.2652 C.ar    
   6 C6            11.7932     0.6416    -7.7890 C.ar    
   7 C7            12.5828     0.0647    -6.7907 C.ar    
   8 C8            13.6616     0.7545    -6.2843 C.ar    
   9 C9            10.6395    -0.0964    -8.3386 C.2     
  10 O10            9.9533     0.4073    -9.2070 O.2     
  11 N11           10.3464    -1.3287    -7.8781 N.am    
  12 C12            9.1878    -1.9823    -8.3154 C.ar    
  13 C13            9.1812    -3.3637    -8.4577 C.ar    
  14 C14            8.0385    -4.0075    -8.8890 C.ar    
  15 C15            6.8968    -3.2747    -9.1802 C.ar    
  16 C16            6.9027    -1.8944    -9.0382 C.ar    
  17 C17            8.0431    -1.2499    -8.6015 C.ar    
  18 O18            5.7721    -3.9092    -9.6052 O.3     
  19 C19            5.8363    -5.2512    -9.8133 C.ar    
  20 C20            5.8117    -6.1219    -8.7303 C.ar    
  21 C21            5.8768    -7.4860    -8.9302 C.ar    
  22 C22            5.9670    -7.9982   -10.2170 C.ar    
  23 C23            5.9918    -7.1245   -11.3148 C.ar    
  24 C24            5.9202    -5.7456   -11.1022 C.ar    
  25 C25            6.0879    -7.6589   -12.6851 C.2     
  26 O26            6.1660    -8.8580   -12.8654 O.2     
  27 O27            6.0893    -6.8177   -13.7378 O.3     
  28 N28            6.0332    -9.3761   -10.4183 N.am    
  29 C29            4.9183   -10.0658   -10.7313 C.2     
  30 O30            3.8721    -9.4787   -10.9094 O.2     
  31 C31            4.9718   -11.5663   -10.8599 C.3     
  32 C32            3.6631   -12.0728   -11.4697 C.3     
  33 C33            3.7174   -13.5962   -11.6003 C.3     
  34 C34            3.9104   -14.2202   -10.2167 C.3     
  35 C35            5.2190   -13.7137    -9.6069 C.3     
  36 C36            5.1648   -12.1902    -9.4763 C.3     
  37 C37            3.9647   -15.7436   -10.3473 C.3     
  38 C38            7.3146   -10.0745   -10.2895 C.3     
  39 C39            8.3194    -9.4834   -11.2804 C.3     
  40 C40            7.8454    -9.9076    -8.8643 C.3     
  41 H41           15.1383     1.8384    -4.3797 H       
  42 H42           16.1899     1.1229    -5.6249 H       
  43 H43           16.5975     2.7044    -4.9171 H       
  44 H44           13.4126     3.5926    -8.1166 H       
  45 H45           11.4908     2.3688    -9.0364 H       
  46 H46           12.3497    -0.9225    -6.4199 H       
  47 H47           14.2726     0.3092    -5.5130 H       
  48 H48           10.9380    -1.7628    -7.2437 H       
  49 H49           10.0698    -3.9342    -8.2314 H       
  50 H50            8.0333    -5.0818    -9.0000 H       
  51 H51            6.0139    -1.3245    -9.2654 H       
  52 H52            8.0476    -0.1756    -8.4911 H       
  53 H53            5.7417    -5.7290    -7.7267 H       
  54 H54            5.8579    -8.1562    -8.0836 H       
  55 H55            5.9388    -5.0669   -11.9421 H       
  56 H56            6.1541    -7.2149   -14.6171 H       
  57 H57            5.8052   -11.8463   -11.5042 H       
  58 H58            2.8297   -11.7928   -10.8254 H       
  59 H59            3.5256   -11.6283   -12.4554 H       
  60 H60            2.7851   -13.9571   -12.0347 H       
  61 H61            4.5508   -13.8762   -12.2446 H       
  62 H62            3.0770   -13.9402    -9.5724 H       
  63 H63            5.3566   -14.1582    -8.6212 H       
  64 H64            6.0524   -13.9937   -10.2513 H       
  65 H65            6.0971   -11.8294    -9.0419 H       
  66 H66            4.3314   -11.9103    -8.8320 H       
  67 H67            4.7981   -16.0236   -10.9917 H       
  68 H68            4.1022   -16.1882    -9.3617 H       
  69 H69            3.0324   -16.1045   -10.7818 H       
  70 H70            7.1740   -11.1341   -10.5031 H       
  71 H71            8.4907    -8.4338   -11.0416 H       
  72 H72            9.2602   -10.0297   -11.2132 H       
  73 H73            7.9230    -9.5657   -12.2924 H       
  74 H74            7.0851   -10.2309    -8.1532 H       
  75 H75            8.7426   -10.5135    -8.7374 H       
  76 H76            8.0867    -8.8596    -8.6868 H       
@<TRIPOS>BOND
   1    1    2 1
   2    1   41 1
   3    1   42 1
   4    1   43 1
   5    2    3 1
   6    3    4 ar
   7    3    8 ar
   8    4    5 ar
   9    4   44 1
  10    5    6 ar
  11    5   45 1
  12    6    7 ar
  13    6    9 1
  14    7    8 ar
  15    7   46 1
  16    8   47 1
  17    9   10 2
  18    9   11 am
  19   11   12 1
  20   11   48 1
  21   12   13 ar
  22   12   17 ar
  23   13   14 ar
  24   13   49 1
  25   14   15 ar
  26   14   50 1
  27   15   16 ar
  28   15   18 1
  29   16   17 ar
  30   16   51 1
  31   17   52 1
  32   18   19 1
  33   19   20 ar
  34   19   24 ar
  35   20   21 ar
  36   20   53 1
  37   21   22 ar
  38   21   54 1
  39   22   23 ar
  40   22   28 1
  41   23   24 ar
  42   23   25 1
  43   24   55 1
  44   25   26 2
  45   25   27 1
  46   27   56 1
  47   28   29 am
  48   28   38 1
  49   29   30 2
  50   29   31 1
  51   31   32 1
  52   31   36 1
  53   31   57 1
  54   32   33 1
  55   32   58 1
  56   32   59 1
  57   33   34 1
  58   33   60 1
  59   33   61 1
  60   34   35 1
  61   34   37 1
  62   34   62 1
  63   35   36 1
  64   35   63 1
  65   35   64 1
  66   36   65 1
  67   36   66 1
  68   37   67 1
  69   37   68 1
  70   37   69 1
  71   38   39 1
  72   38   40 1
  73   38   70 1
  74   39   71 1
  75   39   72 1
  76   39   73 1
  77   40   74 1
  78   40   75 1
  79   40   76 1

#	End of record

