#	Name: ASD04590259
#	Creating user name:	WinNT
#	Creation time:	15. 06. 2019 20:50

#	Modifying user name:	WinNT
#	Modification time:	15. 06. 2019 20:50

#	Program:	/corina/corina34_cracker 3.40 0067  02.08.2006

@<TRIPOS>MOLECULE
ASD04590259
  40   44    0    0    0
SMALL
NO_CHARGES


@<TRIPOS>ATOM
   1 N1            -0.0169     1.3959     0.0097 N.am    
   2 C2             0.0021    -0.0041     0.0020 C.2     
   3 C3             1.2556    -0.6677    -0.0135 C.2     
   4 C4             2.4785     0.1616    -0.0202 C.2     
   5 N5             2.3396     1.5321    -0.0112 N.am    
   6 C6             1.1242     2.1034     0.0026 C.2     
   7 N7             3.7505    -0.1529    -0.0335 N.2     
   8 C8             4.5030     0.9754    -0.0338 C.ar    
   9 C9             3.6193     2.0674    -0.0196 C.ar    
  10 C10            5.8823     1.2069    -0.0453 C.ar    
  11 C11            6.3585     2.4981    -0.0426 C.ar    
  12 C12            5.4808     3.5725    -0.0286 C.ar    
  13 C13            4.1176     3.3615    -0.0164 C.ar    
  14 C14            6.0203     4.9796    -0.0259 C.3     
  15 N15            6.1828     5.4444    -1.4099 N.3     
  16 C16            6.4789     6.8838    -1.4510 C.3     
  17 C17            6.6991     7.3128    -2.9040 C.3     
  18 O18            5.5432     6.9757    -3.6757 O.3     
  19 C19            5.2261     5.5812    -3.6585 C.3     
  20 C20            4.9910     5.1347    -2.2131 C.3     
  21 C21           -0.9629    -0.9519     0.0057 C.2     
  22 N22           -0.3541    -2.1672    -0.0069 N.pl3   
  23 N23            1.0327    -1.9624    -0.0187 N.2     
  24 O24            1.0539     3.3170     0.0097 O.2     
  25 H25           -0.8676     1.8618     0.0162 H       
  26 H26            6.5713     0.3753    -0.0558 H       
  27 H27            7.4237     2.6764    -0.0511 H       
  28 H28            3.4399     4.2023    -0.0051 H       
  29 H29            5.3242     5.6347     0.4980 H       
  30 H30            6.9861     4.9975     0.4791 H       
  31 H31            5.6411     7.4399    -1.0303 H       
  32 H32            7.3793     7.0869    -0.8711 H       
  33 H33            6.8625     8.3897    -2.9448 H       
  34 H34            7.5698     6.7964    -3.3080 H       
  35 H35            4.3242     5.4058    -4.2449 H       
  36 H36            6.0540     5.0144    -4.0844 H       
  37 H37            4.8052     4.0609    -2.1895 H       
  38 H38            4.1294     5.6628    -1.8045 H       
  39 H39           -2.0282    -0.7746     0.0167 H       
  40 H40           -0.8020    -3.0276    -0.0071 H       
@<TRIPOS>BOND
   1    1    2 1
   2    1    6 am
   3    1   25 1
   4    2    3 1
   5    2   21 2
   6    3    4 1
   7    3   23 2
   8    4    5 1
   9    4    7 2
  10    5    6 am
  11    5    9 1
  12    6   24 2
  13    7    8 1
  14    8    9 ar
  15    8   10 ar
  16    9   13 ar
  17   10   11 ar
  18   10   26 1
  19   11   12 ar
  20   11   27 1
  21   12   13 ar
  22   12   14 1
  23   13   28 1
  24   14   15 1
  25   14   29 1
  26   14   30 1
  27   15   16 1
  28   15   20 1
  29   16   17 1
  30   16   31 1
  31   16   32 1
  32   17   18 1
  33   17   33 1
  34   17   34 1
  35   18   19 1
  36   19   20 1
  37   19   35 1
  38   19   36 1
  39   20   37 1
  40   20   38 1
  41   21   22 1
  42   21   39 1
  43   22   23 1
  44   22   40 1

#	End of record

