#	Name: ASD01914630
#	Creating user name:	WinNT
#	Creation time:	15. 06. 2019 20:03

#	Modifying user name:	WinNT
#	Modification time:	15. 06. 2019 20:03

#	Program:	/corina/corina34_cracker 3.40 0067  02.08.2006

@<TRIPOS>MOLECULE
ASD01914630
  36   39    0    0    0
SMALL
NO_CHARGES


@<TRIPOS>ATOM
   1 C1            -0.0167     1.3767     0.0096 C.2     
   2 N2             0.0021    -0.0041     0.0020 N.pl3   
   3 C3             1.2672     1.7857    -0.0005 C.2     
   4 N4             2.0503     0.6717    -0.0122 N.2     
   5 C5             1.2875    -0.3920    -0.0100 C.2     
   6 C6             1.7242     3.1428     0.0005 C.1     
   7 C7             2.0989     4.2554     0.0013 C.1     
   8 C8             2.5559     5.6125     0.0022 C.ar    
   9 C9             3.9250     5.8924    -0.0091 C.ar    
  10 C10            4.3577     7.2019    -0.0086 C.ar    
  11 C11            2.0825     7.9681     0.0090 C.ar    
  12 C12            1.6348     6.6636     0.0086 C.ar    
  13 C13           -1.2033    -0.7166     0.0059 C.ar    
  14 C14           -2.3727     0.0005    -0.2706 C.ar    
  15 O15           -2.3279     1.3257    -0.5613 O.3     
  16 C16           -1.3111     2.1447     0.0316 C.3     
  17 C17           -1.2550    -2.0695     0.2721 C.ar    
  18 C18           -2.4751    -2.7231     0.2773 C.ar    
  19 C19           -3.6361    -2.0190     0.0172 C.ar    
  20 C20           -3.5889    -0.6650    -0.2552 C.ar    
  21 C21            3.4398     8.2375     0.0036 C.ar    
  22 C22            3.9208     9.6657     0.0045 C.3     
  23 H23            1.6352    -1.4145    -0.0161 H       
  24 H24            4.6425     5.0852    -0.0179 H       
  25 H25            5.4155     7.4197    -0.0173 H       
  26 H26            1.3719     8.7814     0.0140 H       
  27 H27            0.5752     6.4548     0.0129 H       
  28 H28           -1.5844     2.3835     1.0594 H       
  29 H29           -1.1989     3.0645    -0.5425 H       
  30 H30           -0.3464    -2.6168     0.4753 H       
  31 H31           -2.5201    -3.7822     0.4840 H       
  32 H32           -4.5870    -2.5310     0.0267 H       
  33 H33           -4.5017    -0.1238    -0.4564 H       
  34 H34            4.0274    10.0138    -1.0228 H       
  35 H35            3.1979    10.2921     0.5273 H       
  36 H36            4.8848     9.7241     0.5099 H       
@<TRIPOS>BOND
   1    1    2 1
   2    1    3 2
   3    1   16 1
   4    2   13 1
   5    2    5 1
   6    3    4 1
   7    3    6 1
   8    4    5 2
   9    5   23 1
  10    6    7 3
  11    7    8 1
  12    8    9 ar
  13    8   12 ar
  14    9   10 ar
  15    9   24 1
  16   10   21 ar
  17   10   25 1
  18   11   12 ar
  19   11   21 ar
  20   11   26 1
  21   12   27 1
  22   13   14 ar
  23   13   17 ar
  24   14   15 1
  25   14   20 ar
  26   15   16 1
  27   16   28 1
  28   16   29 1
  29   17   18 ar
  30   17   30 1
  31   18   19 ar
  32   18   31 1
  33   19   20 ar
  34   19   32 1
  35   20   33 1
  36   21   22 1
  37   22   34 1
  38   22   35 1
  39   22   36 1

#	End of record

