#	Name: ASD03330026
#	Creating user name:	WinNT
#	Creation time:	15. 06. 2019 20:36

#	Modifying user name:	WinNT
#	Modification time:	15. 06. 2019 20:36

#	Program:	/corina/corina34_cracker 3.40 0067  02.08.2006

@<TRIPOS>MOLECULE
ASD03330026
  44   46    0    0    0
SMALL
NO_CHARGES


@<TRIPOS>ATOM
   1 C1            -0.0168     1.3857     0.0097 C.ar    
   2 C2             0.0021    -0.0041     0.0020 C.ar    
   3 C3            -1.1731    -0.7218     0.0089 C.ar    
   4 C4            -2.3931    -0.0521     0.0242 C.ar    
   5 C5            -2.4101     1.3565     0.0324 C.ar    
   6 C6            -1.2016     2.0646     0.0303 C.ar    
   7 N7            -3.7006    -0.4788     0.0344 N.pl3   
   8 C8            -4.5290     0.6265     0.0488 C.2     
   9 C9            -3.7693     1.7530     0.0478 C.2     
  10 C10           -5.9991     0.5898     0.0628 C.2     
  11 O11           -6.6333     1.6278     0.0749 O.2     
  12 N12           -6.6437    -0.5938     0.0623 N.am    
  13 C13           -8.1082    -0.6304     0.0764 C.3     
  14 C14           -8.5821    -2.0851     0.0727 C.3     
  15 C15          -10.0885    -2.1227     0.0871 C.ar    
  16 C16          -10.7898    -2.1331    -1.1048 C.ar    
  17 C17          -12.1703    -2.1675    -1.0952 C.ar    
  18 C18          -12.8545    -2.1918     0.1135 C.ar    
  19 C19          -12.1470    -2.1813     1.3089 C.ar    
  20 C20          -10.7663    -2.1525     1.2920 C.ar    
  21 Cl21           1.4792     2.2664     0.0001 Cl      
  22 N22          -14.2508    -2.2262     0.1269 N.pl3   
  23 C23          -14.9954    -2.2367    -1.1347 C.3     
  24 C24          -14.9707    -2.2517     1.4025 C.3     
  25 H25            0.9475    -0.5261    -0.0098 H       
  26 H26           -1.1482    -1.8015     0.0022 H       
  27 H27           -1.2067     3.1446     0.0365 H       
  28 H28           -3.9928    -1.4037     0.0317 H       
  29 H29           -4.1364     2.7686     0.0572 H       
  30 H30           -6.1379    -1.4215     0.0527 H       
  31 H31           -8.4755    -0.1308     0.9728 H       
  32 H32           -8.4928    -0.1207    -0.8070 H       
  33 H33           -8.2147    -2.5846    -0.8238 H       
  34 H34           -8.1974    -2.5948     0.9560 H       
  35 H35          -10.2572    -2.1139    -2.0441 H       
  36 H36          -12.7174    -2.1753    -2.0263 H       
  37 H37          -12.6759    -2.2000     2.2504 H       
  38 H38          -10.2156    -2.1446     2.2210 H       
  39 H39          -15.1548    -3.2667    -1.4539 H       
  40 H40          -15.9588    -1.7473    -0.9922 H       
  41 H41          -14.4265    -1.7041    -1.8968 H       
  42 H42          -15.1745    -1.2307     1.7252 H       
  43 H43          -15.9114    -2.7880     1.2782 H       
  44 H44          -14.3618    -2.7553     2.1534 H       
@<TRIPOS>BOND
   1    1    2 ar
   2    1   21 1
   3    1    6 ar
   4    2    3 ar
   5    2   25 1
   6    3    4 ar
   7    3   26 1
   8    4    5 ar
   9    4    7 1
  10    5    6 ar
  11    5    9 1
  12    6   27 1
  13    7    8 1
  14    7   28 1
  15    8    9 2
  16    8   10 1
  17    9   29 1
  18   10   11 2
  19   10   12 am
  20   12   13 1
  21   12   30 1
  22   13   14 1
  23   13   31 1
  24   13   32 1
  25   14   15 1
  26   14   33 1
  27   14   34 1
  28   15   16 ar
  29   15   20 ar
  30   16   17 ar
  31   16   35 1
  32   17   18 ar
  33   17   36 1
  34   18   19 ar
  35   18   22 1
  36   19   20 ar
  37   19   37 1
  38   20   38 1
  39   22   23 1
  40   22   24 1
  41   23   39 1
  42   23   40 1
  43   23   41 1
  44   24   42 1
  45   24   43 1
  46   24   44 1

#	End of record

