#	Name: ASD02508466
#	Creating user name:	WinNT
#	Creation time:	15. 06. 2019 20:24

#	Modifying user name:	WinNT
#	Modification time:	15. 06. 2019 20:24

#	Program:	/corina/corina34_cracker 3.40 0067  02.08.2006

@<TRIPOS>MOLECULE
ASD02508466
  32   34    0    0    0
SMALL
NO_CHARGES


@<TRIPOS>ATOM
   1 N1            -0.0234     1.3269    -0.0144 N.2     
   2 C2             0.0114    -0.0130    -0.0707 C.2     
   3 C3             1.2995    -0.4024    -0.0332 C.2     
   4 N4             2.0571     0.7383     0.0479 N.pl3   
   5 C5             1.1948     1.7889     0.0568 C.2     
   6 C6             3.4523     0.8071     0.1101 C.ar    
   7 C7             4.1491     1.6351    -0.7642 C.ar    
   8 N8             4.1136     0.0877     1.0058 N.ar    
   9 C9             5.4325     0.1548     1.0621 C.ar    
  10 C10            6.1227     0.9742     0.1883 C.ar    
  11 N11            5.4661     1.6976    -0.7027 N.ar    
  12 S12            1.8974    -2.0592    -0.0794 S.o2    
  13 N13            1.9180    -2.5289    -1.6672 N.am    
  14 C14            2.7736    -1.8952    -2.5723 C.ar    
  15 C15            3.5184    -2.6490    -3.4702 C.ar    
  16 C16            4.3633    -2.0201    -4.3636 C.ar    
  17 C17            4.4683    -0.6403    -4.3646 C.ar    
  18 C18            3.7278     0.1132    -3.4707 C.ar    
  19 C19            2.8767    -0.5101    -2.5794 C.ar    
  20 O20            3.2537    -2.0082     0.3416 O.2     
  21 O21            0.9139    -2.8588     0.5629 O.2     
  22 Cl22           5.5313     0.1469    -5.4888 Cl      
  23 H23           -0.8460    -0.6665    -0.1347 H       
  24 H24            1.4716     2.8313     0.1129 H       
  25 H25            3.6131     2.2257    -1.4924 H       
  26 H26            5.9716    -0.4309     1.7920 H       
  27 H27            7.2003     1.0273     0.2368 H       
  28 H28            1.3361    -3.2438    -1.9691 H       
  29 H29            3.4371    -3.7260    -3.4697 H       
  30 H30            4.9429    -2.6058    -5.0618 H       
  31 H31            3.8122     1.1899    -3.4732 H       
  32 H32            2.2987     0.0785    -1.8822 H       
@<TRIPOS>BOND
   1    1    2 1
   2    1    5 2
   3    2    3 2
   4    2   23 1
   5    3    4 1
   6    3   12 1
   7    4    5 1
   8    4    6 1
   9    5   24 1
  10    6    7 ar
  11    6    8 ar
  12    7   11 ar
  13    7   25 1
  14    8    9 ar
  15    9   10 ar
  16    9   26 1
  17   10   11 ar
  18   10   27 1
  19   12   13 am
  20   12   20 2
  21   12   21 2
  22   13   14 1
  23   13   28 1
  24   14   15 ar
  25   14   19 ar
  26   15   16 ar
  27   15   29 1
  28   16   17 ar
  29   16   30 1
  30   17   18 ar
  31   17   22 1
  32   18   19 ar
  33   18   31 1
  34   19   32 1

#	End of record

