#	Name: ASD01330018
#	Creating user name:	WinNT
#	Creation time:	15. 06. 2019 19:16

#	Modifying user name:	WinNT
#	Modification time:	15. 06. 2019 19:16

#	Program:	/corina/corina34_cracker 3.40 0067  02.08.2006

@<TRIPOS>MOLECULE
ASD01330018
  26   26    0    0    0
SMALL
NO_CHARGES


@<TRIPOS>ATOM
   1 C1            -0.5686     0.8269     0.0728 C.2     
   2 C2            -0.1349    -0.4460     0.1214 C.2     
   3 C3             1.3355    -0.7439    -0.0112 C.3     
   4 C4             2.1529     0.3652     0.6492 C.3     
   5 C5             1.6898     1.7107     0.1587 C.2     
   6 C6             0.4087     1.9221    -0.1089 C.2     
   7 C7            -2.0092     1.1275     0.1936 C.2     
   8 O8            -2.8082     0.2238     0.3377 O.2     
   9 O9            -2.4375     2.4039     0.1442 O.3     
  10 O10            1.6799    -0.8272    -1.3955 O.3     
  11 C11            0.8617    -3.0119    -1.3594 C.2     
  12 C12            1.4667    -2.0194    -2.0141 C.2     
  13 C13            1.9040    -2.2150    -3.4076 C.2     
  14 O14            2.4552    -1.3111    -4.0040 O.2     
  15 O15            1.6928    -3.3966    -4.0207 O.3     
  16 O16            1.9883     0.2952     2.0670 O.3     
  17 H17           -0.8401    -1.2528     0.2557 H       
  18 H18            1.5574    -1.6947     0.4735 H       
  19 H19            3.2065     0.2336     0.4026 H       
  20 H20            2.4051     2.5086     0.0243 H       
  21 H21            0.0802     2.8897    -0.4584 H       
  22 H22           -3.3896     2.5511     0.2278 H       
  23 H23            0.7744    -3.9863    -1.8167 H       
  24 H24            0.4590    -2.8408    -0.3719 H       
  25 H25            1.9972    -3.4775    -4.9349 H       
  26 H26            2.4797     0.9709     2.5538 H       
@<TRIPOS>BOND
   1    1    2 2
   2    1    6 1
   3    1    7 1
   4    2    3 1
   5    2   17 1
   6    3    4 1
   7    3   10 1
   8    3   18 1
   9    4    5 1
  10    4   16 1
  11    4   19 1
  12    5    6 2
  13    5   20 1
  14    6   21 1
  15    7    8 2
  16    7    9 1
  17    9   22 1
  18   10   12 1
  19   11   12 2
  20   11   23 1
  21   11   24 1
  22   12   13 1
  23   13   14 2
  24   13   15 1
  25   15   25 1
  26   16   26 1

#	End of record

