#	Name: ASD01883107
#	Creating user name:	WinNT
#	Creation time:	15. 06. 2019 19:45

#	Modifying user name:	WinNT
#	Modification time:	15. 06. 2019 19:45

#	Program:	/corina/corina34_cracker 3.40 0067  02.08.2006

@<TRIPOS>MOLECULE
ASD01883107
  45   47    0    0    0
SMALL
NO_CHARGES


@<TRIPOS>ATOM
   1 N1            -0.8734     3.0457    -0.1897 N.am    
   2 C2            -0.4722     1.7650    -0.2926 C.2     
   3 C3            -1.4295     0.7203    -0.2679 C.2     
   4 C4            -2.7881     1.0533    -0.1350 C.2     
   5 C5            -3.1445     2.4116    -0.0318 C.2     
   6 C6            -2.1857     3.3658    -0.0562 C.2     
   7 O7             0.7132     1.5041    -0.4073 O.2     
   8 C8            -1.0204    -0.6477    -0.3766 C.1     
   9 N9            -0.6958    -1.7329    -0.4628 N.1     
  10 C10            0.1271     4.1155    -0.2162 C.3     
  11 C11            0.3545     4.5654    -1.6608 C.3     
  12 C12            1.3994     5.6826    -1.6884 C.3     
  13 C13            1.6269     6.1325    -3.1330 C.3     
  14 C14           -3.8239    -0.0025    -0.1048 C.ar    
  15 C15           -3.8605    -0.9180     0.9487 C.ar    
  16 C16           -4.8278    -1.9014     0.9739 C.ar    
  17 C17           -5.7626    -1.9840    -0.0419 C.ar    
  18 C18           -5.7341    -1.0781    -1.0936 C.ar    
  19 C19           -4.7708    -0.0834    -1.1257 C.ar    
  20 O20           -6.6549    -1.1642    -2.0894 O.3     
  21 C21           -6.2553    -1.6662    -3.2849 C.ar    
  22 N22           -5.0313    -2.1510    -3.4157 N.ar    
  23 C23           -4.6026    -2.6488    -4.5597 C.ar    
  24 C24           -5.4237    -2.6811    -5.6696 C.ar    
  25 C25           -6.7152    -2.1819    -5.5736 C.ar    
  26 C26           -7.1369    -1.6713    -4.3581 C.ar    
  27 H27           -4.1825     2.6913     0.0711 H       
  28 H28           -2.4712     4.4043     0.0238 H       
  29 H29           -0.2276     4.9593     0.3756 H       
  30 H30            1.0641     3.7471     0.2014 H       
  31 H31            0.7092     3.7215    -2.2525 H       
  32 H32           -0.5825     4.9338    -2.0784 H       
  33 H33            1.0448     6.5265    -1.0966 H       
  34 H34            2.3364     5.3142    -1.2708 H       
  35 H35            2.3713     6.9285    -3.1527 H       
  36 H36            1.9815     5.2887    -3.7248 H       
  37 H37            0.6899     6.5009    -3.5506 H       
  38 H38           -3.1318    -0.8565     1.7434 H       
  39 H39           -4.8548    -2.6092     1.7892 H       
  40 H40           -6.5173    -2.7562    -0.0171 H       
  41 H41           -4.7477     0.6222    -1.9430 H       
  42 H42           -3.5967    -3.0356    -4.6293 H       
  43 H43           -5.0646    -3.0900    -6.6025 H       
  44 H44           -7.3773    -2.1950    -6.4267 H       
  45 H45           -8.1354    -1.2749    -4.2479 H       
@<TRIPOS>BOND
   1    1    2 am
   2    1   10 1
   3    1    6 1
   4    2    3 1
   5    2    7 2
   6    3    4 2
   7    3    8 1
   8    4    5 1
   9    4   14 1
  10    5    6 2
  11    5   27 1
  12    6   28 1
  13    8    9 3
  14   10   11 1
  15   10   29 1
  16   10   30 1
  17   11   12 1
  18   11   31 1
  19   11   32 1
  20   12   13 1
  21   12   33 1
  22   12   34 1
  23   13   35 1
  24   13   36 1
  25   13   37 1
  26   14   15 ar
  27   14   19 ar
  28   15   16 ar
  29   15   38 1
  30   16   17 ar
  31   16   39 1
  32   17   18 ar
  33   17   40 1
  34   18   19 ar
  35   18   20 1
  36   19   41 1
  37   20   21 1
  38   21   22 ar
  39   21   26 ar
  40   22   23 ar
  41   23   24 ar
  42   23   42 1
  43   24   25 ar
  44   24   43 1
  45   25   26 ar
  46   25   44 1
  47   26   45 1

#	End of record

