#	Name: ASD01411105
#	Creating user name:	WinNT
#	Creation time:	15. 06. 2019 19:19

#	Modifying user name:	WinNT
#	Modification time:	15. 06. 2019 19:19

#	Program:	/corina/corina34_cracker 3.40 0067  02.08.2006

@<TRIPOS>MOLECULE
ASD01411105
  59   61    0    0    0
SMALL
NO_CHARGES


@<TRIPOS>ATOM
   1 C1            -0.1804     1.6237     0.3407 C.3     
   2 C2            -0.2234     0.0938     0.2170 C.3     
   3 O3             1.1743     2.0717     0.2422 O.3     
   4 C4             0.8312    -0.4737     1.1337 C.2     
   5 C5             1.9878     1.7476     1.3766 C.3     
   6 C6             1.8337     0.2721     1.6612 C.2     
   7 C7             1.0014    -1.8193     1.6180 C.ar    
   8 C8             1.5281     2.5582     2.5901 C.3     
   9 N9             2.6269    -0.5123     2.4478 N.pl3   
  10 C10            0.2768    -3.0134     1.4119 C.ar    
  11 C11            2.1527    -1.7946     2.4477 C.ar    
  12 C12            0.7545    -4.1555     2.0654 C.ar    
  13 C13            2.5985    -2.9513     3.0815 C.ar    
  14 C14            1.8756    -4.1156     2.8691 C.ar    
  15 C15            2.3817     2.1872     3.8044 C.3     
  16 C16            3.4526     2.0647     1.0689 C.3     
  17 N17            3.6134     3.5106     0.8967 N.am    
  18 C18            4.7996     4.0930     1.1619 C.2     
  19 O19            5.7338     3.4201     1.5431 O.2     
  20 C20            4.9651     5.5804     0.9847 C.3     
  21 C21            6.3955     5.9816     1.3504 C.3     
  22 C22            6.5635     7.4916     1.1705 C.3     
  23 C23            7.9940     7.8928     1.5362 C.3     
  24 C24           -0.8867    -3.0539     0.5780 C.1     
  25 N25           -1.8096    -3.0861    -0.0835 N.1     
  26 C26            3.8194    -2.9385     3.9649 C.3     
  27 C27            1.9904     3.0694     4.9916 C.3     
  28 C28            3.8640     1.3591    -0.1975 C.2     
  29 O29            4.2518     1.9985    -1.1466 O.2     
  30 O30            3.7996     0.0204    -0.2712 O.3     
  31 H31           -0.7698     2.0698    -0.4604 H       
  32 H32           -0.5927     1.9221     1.3046 H       
  33 H33           -1.2061    -0.2729     0.5135 H       
  34 H34           -0.0144    -0.1992    -0.8119 H       
  35 H35            1.6387     3.6219     2.3795 H       
  36 H36            0.4818     2.3363     2.8000 H       
  37 H37            3.4091    -0.2064     2.9330 H       
  38 H38            0.2319    -5.0920     1.9375 H       
  39 H39            2.2023    -5.0253     3.3508 H       
  40 H40            2.2156     1.1405     4.0592 H       
  41 H41            3.4348     2.3411     3.5689 H       
  42 H42            4.0789     1.7252     1.8939 H       
  43 H43            2.8663     4.0488     0.5918 H       
  44 H44            4.7671     5.8469    -0.0535 H       
  45 H45            4.2636     6.1040     1.6343 H       
  46 H46            6.5935     5.7151     2.3886 H       
  47 H47            7.0970     5.4580     0.7008 H       
  48 H48            6.3656     7.7581     0.1323 H       
  49 H49            5.8620     8.0152     1.8201 H       
  50 H50            8.1919     7.6263     2.5744 H       
  51 H51            8.6955     7.3693     0.8866 H       
  52 H52            8.1137     8.9686     1.4081 H       
  53 H53            3.5235    -2.7175     4.9904 H       
  54 H54            4.3042    -3.9140     3.9287 H       
  55 H55            4.5134    -2.1746     3.6143 H       
  56 H56            0.9374     2.9155     5.2271 H       
  57 H57            2.5986     2.8051     5.8567 H       
  58 H58            2.1566     4.1161     4.7368 H       
  59 H59            4.0740    -0.3871    -1.1041 H       
@<TRIPOS>BOND
   1    1    2 1
   2    1    3 1
   3    1   31 1
   4    1   32 1
   5    2    4 1
   6    2   33 1
   7    2   34 1
   8    3    5 1
   9    4    6 2
  10    4    7 1
  11    5    8 1
  12    5   16 1
  13    5    6 1
  14    6    9 1
  15    7   10 ar
  16    7   11 ar
  17    8   15 1
  18    8   35 1
  19    8   36 1
  20    9   11 1
  21    9   37 1
  22   10   12 ar
  23   10   24 1
  24   11   13 ar
  25   12   14 ar
  26   12   38 1
  27   13   14 ar
  28   13   26 1
  29   14   39 1
  30   15   27 1
  31   15   40 1
  32   15   41 1
  33   16   17 1
  34   16   28 1
  35   16   42 1
  36   17   18 am
  37   17   43 1
  38   18   19 2
  39   18   20 1
  40   20   21 1
  41   20   44 1
  42   20   45 1
  43   21   22 1
  44   21   46 1
  45   21   47 1
  46   22   23 1
  47   22   48 1
  48   22   49 1
  49   23   50 1
  50   23   51 1
  51   23   52 1
  52   24   25 3
  53   26   53 1
  54   26   54 1
  55   26   55 1
  56   27   56 1
  57   27   57 1
  58   27   58 1
  59   28   29 2
  60   28   30 1
  61   30   59 1

#	End of record

