#	Name: ASD00311367
#	Creating user name:	WinNT
#	Creation time:	15. 06. 2019 18:34

#	Modifying user name:	WinNT
#	Modification time:	15. 06. 2019 18:34

#	Program:	/corina/corina34_cracker 3.40 0067  02.08.2006

@<TRIPOS>MOLECULE
ASD00311367
  39   42    0    0    0
SMALL
NO_CHARGES


@<TRIPOS>ATOM
   1 C1            -0.0167     1.3778     0.0096 C.2     
   2 C2             0.0021    -0.0041     0.0020 C.2     
   3 C3             1.2589    -0.6766    -0.0136 C.2     
   4 C4             2.4316     0.0674    -0.0208 C.2     
   5 C5             2.3574     1.4753    -0.0126 C.2     
   6 N6             1.1648     2.0904     0.0022 N.am    
   7 C7            -1.3431    -0.5750     0.0123 C.2     
   8 C8            -2.3223     0.3256     0.0268 C.2     
   9 S9            -1.6794     1.9559     0.0358 S.3     
  10 O10            3.3822     2.1374    -0.0188 O.2     
  11 C11            3.7477    -0.6118    -0.0366 C.ar    
  12 C12            4.5935    -0.4744    -1.1371 C.ar    
  13 C13            5.8183    -1.1096    -1.1459 C.ar    
  14 C14            6.2081    -1.8816    -0.0660 C.ar    
  15 C15            5.3736    -2.0218     1.0285 C.ar    
  16 C16            4.1488    -1.3868     1.0515 C.ar    
  17 O17            1.3089    -2.0291    -0.0209 O.3     
  18 C18           -1.5955    -2.0356     0.0070 C.ar    
  19 C19           -2.4681    -2.5957     0.9355 C.ar    
  20 C20           -2.7002    -3.9702     0.9241 C.ar    
  21 C21           -2.0562    -4.7759    -0.0184 C.ar    
  22 C22           -1.1919    -4.2129    -0.9355 C.ar    
  23 C23           -0.9632    -2.8506    -0.9324 C.ar    
  24 C24           -3.6245    -4.5735     1.9063 C.2     
  25 O25           -4.1832    -3.8716     2.7252 O.2     
  26 O26           -3.8475    -5.9019     1.8936 O.3     
  27 H27            1.1326     3.0599     0.0073 H       
  28 H28           -3.3748     0.0837     0.0359 H       
  29 H29            4.2901     0.1277    -1.9808 H       
  30 H30            6.4740    -1.0042    -1.9976 H       
  31 H31            7.1676    -2.3772    -0.0777 H       
  32 H32            5.6834    -2.6257     1.8685 H       
  33 H33            3.5001    -1.4933     1.9084 H       
  34 H34            2.2062    -2.3895    -0.0315 H       
  35 H35           -2.9629    -1.9682     1.6620 H       
  36 H36           -2.2346    -5.8410    -0.0289 H       
  37 H37           -0.6961    -4.8397    -1.6620 H       
  38 H38           -0.2898    -2.4158    -1.6562 H       
  39 H39           -4.4602    -6.2505     2.5556 H       
@<TRIPOS>BOND
   1    1    2 2
   2    1    6 1
   3    1    9 1
   4    2    3 1
   5    2    7 1
   6    3    4 2
   7    3   17 1
   8    4    5 1
   9    4   11 1
  10    5    6 am
  11    5   10 2
  12    6   27 1
  13    7    8 2
  14    7   18 1
  15    8    9 1
  16    8   28 1
  17   11   12 ar
  18   11   16 ar
  19   12   13 ar
  20   12   29 1
  21   13   14 ar
  22   13   30 1
  23   14   15 ar
  24   14   31 1
  25   15   16 ar
  26   15   32 1
  27   16   33 1
  28   17   34 1
  29   18   19 ar
  30   18   23 ar
  31   19   20 ar
  32   19   35 1
  33   20   21 ar
  34   20   24 1
  35   21   22 ar
  36   21   36 1
  37   22   23 ar
  38   22   37 1
  39   23   38 1
  40   24   25 2
  41   24   26 1
  42   26   39 1

#	End of record

