#	Name: ASD02030664
#	Creating user name:	WinNT
#	Creation time:	15. 06. 2019 20:15

#	Modifying user name:	WinNT
#	Modification time:	15. 06. 2019 20:15

#	Program:	/corina/corina34_cracker 3.40 0067  02.08.2006

@<TRIPOS>MOLECULE
ASD02030664
  42   45    0    0    0
SMALL
NO_CHARGES


@<TRIPOS>ATOM
   1 C1            -0.0120     1.3508     0.1184 C.2     
   2 N2             0.0047     0.0021     0.0547 N.am    
   3 N3             2.3428     0.0116    -0.1478 N.2     
   4 C4             2.3740     1.3333    -0.0898 C.2     
   5 C5             1.1991     2.0478     0.0453 C.2     
   6 C6             1.1932    -0.6586    -0.0788 C.2     
   7 O7            -1.0680     1.9531     0.2329 O.2     
   8 C8             3.6920     2.0597    -0.1703 C.3     
   9 N9             4.2948     2.1269     1.1632 N.pl3   
  10 C10            4.8004     2.8557     3.1717 C.2     
  11 N11            4.0990     3.1445     2.1057 N.2     
  12 C12            5.1323     1.2162     1.7029 C.2     
  13 C13            5.4622     1.6446     2.9449 C.2     
  14 C14            4.8794     3.6838     4.4284 C.3     
  15 Cl15           5.6867    -0.2425     0.9421 Cl      
  16 F16            3.9941     4.7628     4.3323 F       
  17 F17            4.5338     2.8937     5.5300 F       
  18 F18            6.1836     4.1636     4.5895 F       
  19 C19           -1.1675    -0.6898     0.1247 C.2     
  20 C20           -1.1759    -2.0449     0.0632 C.2     
  21 C21            0.0319    -2.7504    -0.0744 C.2     
  22 C22            1.2062    -2.0639    -0.1444 C.2     
  23 C23           -2.4674     0.0582     0.2723 C.3     
  24 C24           -3.0407     0.7316    -0.9762 C.3     
  25 C25           -3.7021    -0.5286    -0.4147 C.3     
  26 C26           -2.2803     0.5993    -2.2296 C.1     
  27 N27           -1.6936     0.4972    -3.1970 N.1     
  28 O28           -2.3536    -2.7212     0.1354 O.3     
  29 C29           -2.5552    -3.5526     1.2800 C.3     
  30 H30            1.2152     3.1266     0.0934 H       
  31 H31            4.3608     1.5251    -0.8449 H       
  32 H32            3.5279     3.0696    -0.5462 H       
  33 H33            6.1199     1.1403     3.6374 H       
  34 H34            0.0289    -3.8293    -0.1240 H       
  35 H35            2.1409    -2.5946    -0.2503 H       
  36 H36           -2.6143     0.5615     1.2280 H       
  37 H37           -3.5651     1.6777    -0.8418 H       
  38 H38           -3.5742    -1.4557    -0.9735 H       
  39 H39           -4.6616    -0.4116     0.0890 H       
  40 H40           -2.4217    -2.9619     2.1862 H       
  41 H41           -3.5652    -3.9618     1.2584 H       
  42 H42           -1.8324    -4.3684     1.2683 H       
@<TRIPOS>BOND
   1    1    2 am
   2    1    5 1
   3    1    7 2
   4    2    6 1
   5    2   19 1
   6    3    4 1
   7    3    6 2
   8    4    5 2
   9    4    8 1
  10    5   30 1
  11    6   22 1
  12    8    9 1
  13    8   31 1
  14    8   32 1
  15    9   12 1
  16    9   11 1
  17   10   11 2
  18   10   13 1
  19   10   14 1
  20   12   13 2
  21   12   15 1
  22   13   33 1
  23   14   16 1
  24   14   17 1
  25   14   18 1
  26   19   20 2
  27   19   23 1
  28   20   21 1
  29   20   28 1
  30   21   22 2
  31   21   34 1
  32   22   35 1
  33   23   24 1
  34   23   25 1
  35   23   36 1
  36   24   25 1
  37   24   26 1
  38   24   37 1
  39   25   38 1
  40   25   39 1
  41   26   27 3
  42   28   29 1
  43   29   40 1
  44   29   41 1
  45   29   42 1

#	End of record

