#	Name: ASD01948038
#	Creating user name:	WinNT
#	Creation time:	15. 06. 2019 20:13

#	Modifying user name:	WinNT
#	Modification time:	15. 06. 2019 20:13

#	Program:	/corina/corina34_cracker 3.40 0067  02.08.2006

@<TRIPOS>MOLECULE
ASD01948038
  50   52    0    0    0
SMALL
NO_CHARGES


@<TRIPOS>ATOM
   1 C1             0.5774     0.1705    -3.0169 C.2     
   2 C2            -0.1080    -0.2720    -1.9109 C.2     
   3 C3             0.4247    -0.0771    -0.6263 C.2     
   4 C4             1.6491     0.5664    -0.4951 C.2     
   5 C5             2.3115     0.9988    -1.6403 C.2     
   6 N6             1.7773     0.7994    -2.8639 N.am    
   7 N7             0.2122     0.0625    -4.3519 N.am    
   8 C8             1.2497     0.6766    -5.1868 C.3     
   9 C9             2.3055     1.1732    -4.1866 C.3     
  10 C10           -0.9165    -0.5155    -4.8083 C.2     
  11 O11           -1.7570    -0.9096    -4.0244 O.2     
  12 O12           -1.1128    -0.6561    -6.1329 O.3     
  13 O13            3.3891     1.5664    -1.5369 O.2     
  14 C14            2.2510     0.7933     0.8677 C.3     
  15 N15           -0.2613    -0.5199     0.4945 N.pl3   
  16 C16           -1.5493    -0.0425     0.7603 C.ar    
  17 C17           -2.2705    -0.5452     1.8387 C.ar    
  18 C18           -3.5426    -0.0704     2.0981 C.ar    
  19 C19           -4.0977     0.9031     1.2863 C.ar    
  20 C20           -3.3825     1.4040     0.2139 C.ar    
  21 C21           -2.1084     0.9377    -0.0480 C.ar    
  22 I22           -6.0262     1.6194     1.6825 I       
  23 F23           -1.7285    -1.4959     2.6308 F       
  24 N24           -1.3481    -0.9222    -2.0663 N.pl3   
  25 C25           -2.3511    -1.2876    -6.5525 C.3     
  26 C26           -3.5391    -0.4673    -6.0457 C.3     
  27 C27           -2.3952    -1.3588    -8.0802 C.3     
  28 C28           -2.4240    -2.7020    -5.9737 C.3     
  29 H29            1.6847    -0.0634    -5.8587 H       
  30 H30            0.8370     1.5108    -5.7542 H       
  31 H31            2.4190     2.2549    -4.2578 H       
  32 H32            3.2595     0.6781    -4.3678 H       
  33 H33            2.8074    -0.0934     1.1714 H       
  34 H34            2.9245     1.6494     0.8295 H       
  35 H35            1.4564     0.9880     1.5880 H       
  36 H36            0.1518    -1.1606     1.0943 H       
  37 H37           -4.1038    -0.4599     2.9347 H       
  38 H38           -3.8189     2.1638    -0.4175 H       
  39 H39           -1.5493     1.3330    -0.8832 H       
  40 H40           -2.1670    -0.4033    -2.0995 H       
  41 H41           -1.3831    -1.8887    -2.1402 H       
  42 H42           -3.4872     0.5403    -6.4580 H       
  43 H43           -4.4687    -0.9413    -6.3606 H       
  44 H44           -3.5077    -0.4166    -4.9573 H       
  45 H45           -1.5489    -1.9431    -8.4412 H       
  46 H46           -3.3248    -1.8328    -8.3951 H       
  47 H47           -2.3433    -0.3511    -8.4925 H       
  48 H48           -2.3926    -2.6512    -4.8853 H       
  49 H49           -3.3536    -3.1760    -6.2886 H       
  50 H50           -1.5776    -3.2863    -6.3347 H       
@<TRIPOS>BOND
   1    1    2 2
   2    1    6 1
   3    1    7 1
   4    2    3 1
   5    2   24 1
   6    3    4 2
   7    3   15 1
   8    4    5 1
   9    4   14 1
  10    5    6 am
  11    5   13 2
  12    6    9 1
  13    7    8 1
  14    7   10 am
  15    8    9 1
  16    8   29 1
  17    8   30 1
  18    9   31 1
  19    9   32 1
  20   10   11 2
  21   10   12 1
  22   12   25 1
  23   14   33 1
  24   14   34 1
  25   14   35 1
  26   15   16 1
  27   15   36 1
  28   16   17 ar
  29   16   21 ar
  30   17   18 ar
  31   17   23 1
  32   18   19 ar
  33   18   37 1
  34   19   20 ar
  35   19   22 1
  36   20   21 ar
  37   20   38 1
  38   21   39 1
  39   24   40 1
  40   24   41 1
  41   25   26 1
  42   25   28 1
  43   25   27 1
  44   26   42 1
  45   26   43 1
  46   26   44 1
  47   27   45 1
  48   27   46 1
  49   27   47 1
  50   28   48 1
  51   28   49 1
  52   28   50 1

#	End of record

