#	Name: ASD03180086
#	Creating user name:	WinNT
#	Creation time:	15. 06. 2019 20:33

#	Modifying user name:	WinNT
#	Modification time:	15. 06. 2019 20:33

#	Program:	/corina/corina34_cracker 3.40 0067  02.08.2006

@<TRIPOS>MOLECULE
ASD03180086
  45   48    0    0    0
SMALL
NO_CHARGES


@<TRIPOS>ATOM
   1 C1            -0.0146     1.3827    -0.0387 C.ar    
   2 C2            -1.2362    -0.5837    -0.6650 C.ar    
   3 C3            -2.3856    -0.0414    -0.1192 C.ar    
   4 C4            -2.3551     1.2155     0.4563 C.ar    
   5 C5            -1.1720     1.9266     0.5033 C.ar    
   6 C6            -0.0513     0.1243    -0.6265 C.ar    
   7 C7            -1.1369     3.2910     1.1423 C.3     
   8 N8             1.1830     2.1019     0.0021 N.pl3   
   9 C9             2.3922     1.4303     0.0915 C.2     
  10 N10            3.5630     1.9819     0.0070 N.2     
  11 S11            2.5758    -0.3024     0.3451 S.3     
  12 C12            4.3284    -0.1262     0.3067 C.2     
  13 C13            4.6183     1.1751     0.1173 C.2     
  14 C14            6.0076     1.6736     0.0394 C.2     
  15 S15            7.4673     0.6945     0.1711 S.3     
  16 C16            8.4517     2.1399    -0.0400 C.2     
  17 N17            7.6720     3.1738    -0.1831 N.2     
  18 C18            6.3800     2.9588    -0.1511 C.2     
  19 C19            5.3760     4.0711    -0.3113 C.3     
  20 C20            9.9288     2.1744    -0.0523 C.ar    
  21 C21           10.6588     0.9949     0.1065 C.ar    
  22 C22           10.6002     3.3859    -0.2284 C.ar    
  23 C23           11.9791     3.4116    -0.2389 C.ar    
  24 C24           12.6976     2.2391    -0.0752 C.ar    
  25 C25           12.0374     1.0336     0.0942 C.ar    
  26 C26           -1.3136     4.3633     0.0653 C.3     
  27 Cl27          14.4331     2.2796    -0.0902 Cl      
  28 H28           -1.2634    -1.5657    -1.1137 H       
  29 H29           -3.3111    -0.5973    -0.1507 H       
  30 H30           -3.2544     1.6360     0.8815 H       
  31 H31            0.8457    -0.2996    -1.0531 H       
  32 H32           -1.9434     3.3717     1.8711 H       
  33 H33           -0.1792     3.4332     1.6429 H       
  34 H34            1.1680     3.0712    -0.0323 H       
  35 H35            5.0471    -0.9245     0.4193 H       
  36 H36            5.1376     4.4889     0.6668 H       
  37 H37            5.7958     4.8508    -0.9469 H       
  38 H38            4.4684     3.6782    -0.7695 H       
  39 H39           10.1450     0.0542     0.2390 H       
  40 H40           10.0409     4.3009    -0.3565 H       
  41 H41           12.4996     4.3480    -0.3755 H       
  42 H42           12.6032     0.1219     0.2169 H       
  43 H43           -2.2713     4.2211    -0.4353 H       
  44 H44           -1.2881     5.3501     0.5275 H       
  45 H45           -0.5071     4.2826    -0.6635 H       
@<TRIPOS>BOND
   1    1    6 ar
   2    1    8 1
   3    1    5 ar
   4    2    3 ar
   5    2    6 ar
   6    2   28 1
   7    3    4 ar
   8    3   29 1
   9    4    5 ar
  10    4   30 1
  11    5    7 1
  12    6   31 1
  13    7   26 1
  14    7   32 1
  15    7   33 1
  16    8    9 1
  17    8   34 1
  18    9   11 1
  19    9   10 2
  20   10   13 1
  21   11   12 1
  22   12   13 2
  23   12   35 1
  24   13   14 1
  25   14   15 1
  26   14   18 2
  27   15   16 1
  28   16   17 2
  29   16   20 1
  30   17   18 1
  31   18   19 1
  32   19   36 1
  33   19   37 1
  34   19   38 1
  35   20   22 ar
  36   20   21 ar
  37   21   25 ar
  38   21   39 1
  39   22   23 ar
  40   22   40 1
  41   23   24 ar
  42   23   41 1
  43   24   25 ar
  44   24   27 1
  45   25   42 1
  46   26   43 1
  47   26   44 1
  48   26   45 1

#	End of record

