#	Name: ASD04590723
#	Creating user name:	WinNT
#	Creation time:	15. 06. 2019 20:51

#	Modifying user name:	WinNT
#	Modification time:	15. 06. 2019 20:51

#	Program:	/corina/corina34_cracker 3.40 0067  02.08.2006

@<TRIPOS>MOLECULE
ASD04590723
  75   80    0    0    0
SMALL
NO_CHARGES


@<TRIPOS>ATOM
   1 N1            -0.0145     1.3220     0.0158 N.ar    
   2 C2             0.0026    -0.0049     0.0121 C.ar    
   3 N3             1.1302    -0.6977     0.0110 N.ar    
   4 C4             2.3060    -0.0769     0.0131 C.ar    
   5 C5             2.3216     1.3325     0.0166 C.ar    
   6 C6             1.1106     2.0176     0.0181 C.ar    
   7 N7             3.6037    -0.5250     0.0122 N.pl3   
   8 C8             4.4842     0.5431     0.0150 C.ar    
   9 C9             3.7344     1.7329     0.0178 C.ar    
  10 C10            5.8701     0.6339     0.0155 C.ar    
  11 N11            6.4647     1.8095     0.0189 N.ar    
  12 C12            5.7897     2.9454     0.0216 C.ar    
  13 C13            4.4110     2.9521     0.0209 C.ar    
  14 C14            4.0007    -1.9352     0.0093 C.3     
  15 N15           -1.2012    -0.6884     0.0098 N.pl3   
  16 C16           -2.4067     0.0155     0.1309 C.ar    
  17 C17           -3.5430    -0.4196    -0.5335 C.ar    
  18 N18           -4.6820     0.2381    -0.4244 N.ar    
  19 C19           -4.7864     1.3297     0.3164 C.ar    
  20 C20           -3.6881     1.8250     1.0117 C.ar    
  21 C21           -2.4796     1.1587     0.9256 C.ar    
  22 N22           -6.0095     1.9903     0.4006 N.3     
  23 C23           -7.0321     1.3088    -0.4033 C.3     
  24 C24           -8.3182     2.1383    -0.4049 C.3     
  25 C25           -8.8079     2.3142     1.0352 C.3     
  26 C26           -7.7063     2.9823     1.8626 C.3     
  27 C27           -6.4380     2.1283     1.7984 C.3     
  28 C28            3.4441    -2.6243     1.2567 C.3     
  29 C29            3.8588    -4.0971     1.2536 C.3     
  30 C30            3.3033    -4.7807     0.0026 C.3     
  31 C31            3.8599    -4.0915    -1.2449 C.3     
  32 C32            3.4453    -2.6188    -1.2418 C.3     
  33 C33            3.7179    -6.2534    -0.0005 C.3     
  34 C34            1.7766    -4.6807     0.0021 C.3     
  35 N35          -10.0099     3.1587     1.0452 N.3     
  36 C36          -10.5764     3.2522     2.3973 C.3     
  37 C37           -9.7205     4.4927     0.5023 C.3     
  38 H38            1.0896     3.0974     0.0212 H       
  39 H39            6.4655    -0.2672     0.0133 H       
  40 H40            6.3261     3.8828     0.0247 H       
  41 H41            3.8653     3.8842     0.0235 H       
  42 H42            5.0884    -2.0064     0.0096 H       
  43 H43           -1.2102    -1.6546    -0.0756 H       
  44 H44           -3.4955    -1.3066    -1.1478 H       
  45 H45           -3.7793     2.7163     1.6147 H       
  46 H46           -1.6103     1.5202     1.4549 H       
  47 H47           -6.6729     1.1938    -1.4260 H       
  48 H48           -7.2342     0.3263     0.0231 H       
  49 H49           -8.1200     3.1161    -0.8439 H       
  50 H50           -9.0819     1.6246    -0.9888 H       
  51 H51           -9.0432     1.3391     1.4616 H       
  52 H52           -7.4985     3.9733     1.4593 H       
  53 H53           -8.0328     3.0715     2.8987 H       
  54 H54           -6.6428     1.1419     2.2146 H       
  55 H55           -5.6473     2.6085     2.3749 H       
  56 H56            3.8398    -2.1373     2.1480 H       
  57 H57            2.3564    -2.5531     1.2564 H       
  58 H58            4.9464    -4.1683     1.2540 H       
  59 H59            3.4622    -4.5881     2.1423 H       
  60 H60            4.9476    -4.1627    -1.2445 H       
  61 H61            3.4642    -4.5785    -2.1361 H       
  62 H62            2.3576    -2.5475    -1.2421 H       
  63 H63            3.8418    -2.1278    -2.1305 H       
  64 H64            3.3214    -6.7444     0.8882 H       
  65 H65            3.3222    -6.7404    -0.8918 H       
  66 H66            4.8056    -6.3246    -0.0002 H       
  67 H67            1.4812    -3.6315     0.0043 H       
  68 H68            1.3808    -5.1677    -0.8891 H       
  69 H69            1.3800    -5.1717     0.8908 H       
  70 H70           -9.8382     3.6868     3.0713 H       
  71 H71          -11.4651     3.8830     2.3762 H       
  72 H72          -10.8463     2.2559     2.7478 H       
  73 H73           -9.3682     4.3984    -0.5248 H       
  74 H74          -10.6273     5.0973     0.5213 H       
  75 H75           -8.9514     4.9723     1.1077 H       
@<TRIPOS>BOND
   1    1    2 ar
   2    1    6 ar
   3    2    3 ar
   4    2   15 1
   5    3    4 ar
   6    4    5 ar
   7    4    7 1
   8    5    6 ar
   9    5    9 1
  10    6   38 1
  11    7    8 1
  12    7   14 1
  13    8    9 ar
  14    8   10 ar
  15    9   13 ar
  16   10   11 ar
  17   10   39 1
  18   11   12 ar
  19   12   13 ar
  20   12   40 1
  21   13   41 1
  22   14   28 1
  23   14   32 1
  24   14   42 1
  25   15   16 1
  26   15   43 1
  27   16   17 ar
  28   16   21 ar
  29   17   18 ar
  30   17   44 1
  31   18   19 ar
  32   19   20 ar
  33   19   22 1
  34   20   21 ar
  35   20   45 1
  36   21   46 1
  37   22   23 1
  38   22   27 1
  39   23   24 1
  40   23   47 1
  41   23   48 1
  42   24   25 1
  43   24   49 1
  44   24   50 1
  45   25   26 1
  46   25   35 1
  47   25   51 1
  48   26   27 1
  49   26   52 1
  50   26   53 1
  51   27   54 1
  52   27   55 1
  53   28   29 1
  54   28   56 1
  55   28   57 1
  56   29   30 1
  57   29   58 1
  58   29   59 1
  59   30   31 1
  60   30   33 1
  61   30   34 1
  62   31   32 1
  63   31   60 1
  64   31   61 1
  65   32   62 1
  66   32   63 1
  67   33   64 1
  68   33   65 1
  69   33   66 1
  70   34   67 1
  71   34   68 1
  72   34   69 1
  73   35   36 1
  74   35   37 1
  75   36   70 1
  76   36   71 1
  77   36   72 1
  78   37   73 1
  79   37   74 1
  80   37   75 1

#	End of record

