#	Name: ASD03092841
#	Creating user name:	WinNT
#	Creation time:	15. 06. 2019 20:33

#	Modifying user name:	WinNT
#	Modification time:	15. 06. 2019 20:33

#	Program:	/corina/corina34_cracker 3.40 0067  02.08.2006

@<TRIPOS>MOLECULE
ASD03092841
  57   60    0    0    0
SMALL
NO_CHARGES


@<TRIPOS>ATOM
   1 C1             0.0189     1.4210     0.3753 C.3     
   2 C2            -0.0749    -0.0991     0.2294 C.3     
   3 H3            -1.0967    -0.3778    -0.0282 H       
   4 C4             0.8778    -0.5671    -0.8766 C.3     
   5 N5             0.9094    -2.0383    -0.8702 N.am    
   6 C6             1.1530    -2.7193     0.4113 C.3     
   7 C7             0.1869    -2.1464     1.4546 C.3     
   8 H8            -0.8338    -2.4333     1.2019 H       
   9 C9             0.5443    -2.6947     2.8376 C.3     
  10 O10            0.2930    -0.7208     1.4631 O.3     
  11 C11            0.7203    -2.7412    -2.0044 C.2     
  12 O12            0.4063    -2.1678    -3.0301 O.2     
  13 C13            0.8937    -4.2031    -2.0019 C.2     
  14 N14            1.3492    -4.9015    -1.0019 N.2     
  15 C15            1.4422    -6.1987    -1.1631 C.2     
  16 C16            1.0354    -6.6598    -2.3993 C.2     
  17 S17            0.5093    -5.2708    -3.3482 S.3     
  18 C18            1.0356    -8.0669    -2.8452 C.ar    
  19 C19           -0.0967    -8.6092    -3.4574 C.ar    
  20 C20           -0.0895    -9.9248    -3.8714 C.ar    
  21 C21            1.0359   -10.7073    -3.6812 C.ar    
  22 C22            2.1612   -10.1767    -3.0755 C.ar    
  23 C23            2.1702    -8.8608    -2.6620 C.ar    
  24 S24            1.0357   -12.3873    -4.2123 S.o2    
  25 N25            1.5855   -12.4077    -5.7743 N.am    
  26 O26            2.0182   -13.0548    -3.4323 O.2     
  27 O27           -0.3254   -12.7927    -4.2607 O.2     
  28 C28            1.9455    -7.1011    -0.1006 C.ar    
  29 C29            1.3030    -8.3127     0.1510 C.ar    
  30 C30            1.7762    -9.1488     1.1416 C.ar    
  31 C31            2.8858    -8.7869     1.8843 C.ar    
  32 C32            3.5274    -7.5860     1.6392 C.ar    
  33 C33            3.0668    -6.7444     0.6474 C.ar    
  34 C34            3.3973    -9.7042     2.9650 C.3     
  35 F35            4.3380   -10.5858     2.4218 F       
  36 F36            3.9982    -8.9453     3.9751 F       
  37 F37            2.3305   -10.4331     3.5015 F       
  38 H38            1.0409     1.6989     0.6329 H       
  39 H39           -0.2600     1.8943    -0.5662 H       
  40 H40           -0.6575     1.7528     1.1631 H       
  41 H41            0.5208    -0.2118    -1.8432 H       
  42 H42            1.8783    -0.1776    -0.6884 H       
  43 H43            0.9783    -3.7891     0.2976 H       
  44 H44            2.1812    -2.5464     0.7292 H       
  45 H45            1.5645    -2.4059     3.0904 H       
  46 H46           -0.1430    -2.2870     3.5788 H       
  47 H47            0.4661    -3.7819     2.8287 H       
  48 H48           -0.9759    -7.9998    -3.6058 H       
  49 H49           -0.9643   -10.3454    -4.3449 H       
  50 H50            3.0359   -10.7932    -2.9298 H       
  51 H51            3.0507    -8.4467    -2.1934 H       
  52 H52            1.8330   -11.5783    -6.2122 H       
  53 H53            1.6600   -13.2490    -6.2513 H       
  54 H54            0.4365    -8.5961    -0.4280 H       
  55 H55            1.2792   -10.0873     1.3377 H       
  56 H56            4.3930    -7.3086     2.2225 H       
  57 H57            3.5714    -5.8094     0.4537 H       
@<TRIPOS>BOND
   1    1    2 1
   2    1   38 1
   3    1   39 1
   4    1   40 1
   5    2    3 1
   6    2   10 1
   7    2    4 1
   8    4    5 1
   9    4   41 1
  10    4   42 1
  11    5    6 1
  12    5   11 am
  13    6    7 1
  14    6   43 1
  15    6   44 1
  16    7    8 1
  17    7    9 1
  18    7   10 1
  19    9   45 1
  20    9   46 1
  21    9   47 1
  22   11   12 2
  23   11   13 1
  24   13   17 1
  25   13   14 2
  26   14   15 1
  27   15   16 2
  28   15   28 1
  29   16   17 1
  30   16   18 1
  31   18   23 ar
  32   18   19 ar
  33   19   20 ar
  34   19   48 1
  35   20   21 ar
  36   20   49 1
  37   21   22 ar
  38   21   24 1
  39   22   23 ar
  40   22   50 1
  41   23   51 1
  42   24   25 am
  43   24   26 2
  44   24   27 2
  45   25   52 1
  46   25   53 1
  47   28   33 ar
  48   28   29 ar
  49   29   30 ar
  50   29   54 1
  51   30   31 ar
  52   30   55 1
  53   31   32 ar
  54   31   34 1
  55   32   33 ar
  56   32   56 1
  57   33   57 1
  58   34   35 1
  59   34   36 1
  60   34   37 1

#	End of record

