#	Name: ASD01900581
#	Creating user name:	WinNT
#	Creation time:	15. 06. 2019 19:52

#	Modifying user name:	WinNT
#	Modification time:	15. 06. 2019 19:52

#	Program:	/corina/corina34_cracker 3.40 0067  02.08.2006

@<TRIPOS>MOLECULE
ASD01900581
  58   62    0    0    0
SMALL
NO_CHARGES


@<TRIPOS>ATOM
   1 C1             0.1358     0.8606    -0.2608 C.ar    
   2 C2             0.3163    -0.5052    -0.2984 C.ar    
   3 C3             1.5920    -1.0439    -0.4069 C.ar    
   4 C4             2.7010    -0.2173    -0.4701 C.ar    
   5 C5             2.5352     1.1555    -0.4271 C.ar    
   6 C6             1.2430     1.7039    -0.3327 C.ar    
   7 N7             3.6194     2.0250    -0.4682 N.pl3   
   8 C8             3.4303     3.3651    -1.0355 C.3     
   9 N9             2.1733     3.9441    -0.5603 N.am    
  10 C10            1.1014     3.1689    -0.3018 C.2     
  11 C11            2.0823     5.3287    -0.3707 C.ar    
  12 C12            2.6411     5.9134     0.7581 C.ar    
  13 C13            2.5510     7.2787     0.9444 C.ar    
  14 C14            1.9020     8.0660     0.0045 C.ar    
  15 C15            1.3435     7.4825    -1.1234 C.ar    
  16 C16            1.4382     6.1182    -1.3141 C.ar    
  17 C17            1.1308    10.1595    -0.8185 C.3     
  18 O18            1.8129     9.4102     0.1891 O.3     
  19 O19            0.0258     3.6757    -0.0454 O.2     
  20 F20            1.7520    -2.3846    -0.4506 F       
  21 C21            4.5966     4.2625    -0.6112 C.3     
  22 C22            3.4024     3.2685    -2.5635 C.3     
  23 C23            3.2743     4.6740    -3.1553 C.3     
  24 N24            4.4103     5.4959    -2.7193 N.3     
  25 C25            4.4330     5.6399    -1.2582 C.3     
  26 C26            4.3933     6.8090    -3.3775 C.3     
  27 C27            5.5078     7.6612    -2.8273 C.ar    
  28 C28            6.7857     7.5417    -3.3399 C.ar    
  29 C29            7.8099     8.3221    -2.8364 C.ar    
  30 C30            7.5559     9.2243    -1.8185 C.ar    
  31 C31            6.2735     9.3446    -1.3044 C.ar    
  32 C32            5.2496     8.5658    -1.8141 C.ar    
  33 F33            8.5563     9.9869    -1.3256 F       
  34 F34            6.0232    10.2245    -0.3103 F       
  35 H35           -0.8583     1.2751    -0.1805 H       
  36 H36           -0.5400    -1.1611    -0.2428 H       
  37 H37            3.6905    -0.6421    -0.5523 H       
  38 H38            4.4853     1.7508    -0.1276 H       
  39 H39            3.1458     5.3005     1.4902 H       
  40 H40            2.9856     7.7336     1.8222 H       
  41 H41            0.8381     8.0961    -1.8545 H       
  42 H42            1.0072     5.6646    -2.1944 H       
  43 H43            1.1317    11.2157    -0.5489 H       
  44 H44            1.6376    10.0282    -1.7746 H       
  45 H45            0.1029     9.8064    -0.9006 H       
  46 H46            4.5992     4.3677     0.4737 H       
  47 H47            5.5364     3.8165    -0.9369 H       
  48 H48            4.3251     2.8078    -2.9160 H       
  49 H49            2.5506     2.6636    -2.8745 H       
  50 H50            3.2685     4.6106    -4.2435 H       
  51 H51            2.3446     5.1287    -2.8133 H       
  52 H52            3.4985     6.0899    -0.9230 H       
  53 H53            5.2678     6.2784    -0.9691 H       
  54 H54            4.5313     6.6792    -4.4510 H       
  55 H55            3.4367     7.2968    -3.1906 H       
  56 H56            6.9846     6.8377    -4.1344 H       
  57 H57            8.8082     8.2273    -3.2373 H       
  58 H58            4.2495     8.6616    -1.4176 H       
@<TRIPOS>BOND
   1    1    2 ar
   2    1    6 ar
   3    1   35 1
   4    2    3 ar
   5    2   36 1
   6    3    4 ar
   7    3   20 1
   8    4    5 ar
   9    4   37 1
  10    5    7 1
  11    5    6 ar
  12    6   10 1
  13    7    8 1
  14    7   38 1
  15    8    9 1
  16    8   22 1
  17    8   21 1
  18    9   10 am
  19    9   11 1
  20   10   19 2
  21   11   12 ar
  22   11   16 ar
  23   12   13 ar
  24   12   39 1
  25   13   14 ar
  26   13   40 1
  27   14   15 ar
  28   14   18 1
  29   15   16 ar
  30   15   41 1
  31   16   42 1
  32   17   18 1
  33   17   43 1
  34   17   44 1
  35   17   45 1
  36   21   25 1
  37   21   46 1
  38   21   47 1
  39   22   23 1
  40   22   48 1
  41   22   49 1
  42   23   24 1
  43   23   50 1
  44   23   51 1
  45   24   25 1
  46   24   26 1
  47   25   52 1
  48   25   53 1
  49   26   27 1
  50   26   54 1
  51   26   55 1
  52   27   28 ar
  53   27   32 ar
  54   28   29 ar
  55   28   56 1
  56   29   30 ar
  57   29   57 1
  58   30   31 ar
  59   30   33 1
  60   31   32 ar
  61   31   34 1
  62   32   58 1

#	End of record

