#	Name: ASD07301078
#	Creating user name:	WinNT
#	Creation time:	15. 06. 2019 21:10

#	Modifying user name:	WinNT
#	Modification time:	15. 06. 2019 21:10

#	Program:	/corina/corina34_cracker 3.40 0067  02.08.2006

@<TRIPOS>MOLECULE
ASD07301078
  30   30    0    0    0
SMALL
NO_CHARGES


@<TRIPOS>ATOM
   1 C1            -0.5382     0.5496     1.2999 C.3     
   2 C2             0.0024    -0.0038     0.0066 C.2     
   3 C3             1.3291    -0.6208    -0.0274 C.2     
   4 C4             1.4656    -2.0710     0.1150 C.2     
   5 C5             2.8317    -2.7063     0.0799 C.3     
   6 O6            -0.6623     0.0622    -1.0066 O.2     
   7 O7             0.4786    -2.7619     0.2613 O.2     
   8 N8             2.4058     0.1329    -0.1870 N.2     
   9 N9             2.2806     1.3963    -0.4155 N.pl3   
  10 C10            3.4083     2.1709    -0.6886 C.ar    
  11 C11            3.2755     3.5349    -0.9355 C.ar    
  12 C12            4.3963     4.2982    -1.2051 C.ar    
  13 C13            5.6469     3.7080    -1.2295 C.ar    
  14 C14            5.7816     2.3536    -0.9846 C.ar    
  15 C15            4.6678     1.5847    -0.7092 C.ar    
  16 C16            7.1470     1.7165    -1.0130 C.3     
  17 F17            8.1093     2.6888    -1.3057 F       
  18 F18            7.4227     1.1485     0.2354 F       
  19 F19            7.1765     0.7206    -1.9952 F       
  20 F20            2.0537     4.1111    -0.9121 F       
  21 H21            0.1544     0.3222     2.1102 H       
  22 H22           -0.6534     1.6300     1.2128 H       
  23 H23           -1.5068     0.0969     1.5121 H       
  24 H24            3.4405    -2.3038     0.8895 H       
  25 H25            2.7338    -3.7852     0.2007 H       
  26 H26            3.3088    -2.4895    -0.8758 H       
  27 H27            1.4023     1.8077    -0.3975 H       
  28 H28            4.2951     5.3561    -1.3973 H       
  29 H29            6.5207     4.3065    -1.4407 H       
  30 H30            4.7754     0.5280    -0.5138 H       
@<TRIPOS>BOND
   1    1    2 1
   2    1   21 1
   3    1   22 1
   4    1   23 1
   5    2    3 1
   6    2    6 2
   7    3    4 1
   8    3    8 2
   9    4    5 1
  10    4    7 2
  11    5   24 1
  12    5   25 1
  13    5   26 1
  14    8    9 1
  15    9   10 1
  16    9   27 1
  17   10   11 ar
  18   10   15 ar
  19   11   12 ar
  20   11   20 1
  21   12   13 ar
  22   12   28 1
  23   13   14 ar
  24   13   29 1
  25   14   15 ar
  26   14   16 1
  27   15   30 1
  28   16   17 1
  29   16   18 1
  30   16   19 1

#	End of record

