#	Name: ASD03091547
#	Creating user name:	WinNT
#	Creation time:	15. 06. 2019 20:30

#	Modifying user name:	WinNT
#	Modification time:	15. 06. 2019 20:30

#	Program:	/corina/corina34_cracker 3.40 0067  02.08.2006

@<TRIPOS>MOLECULE
ASD03091547
  50   51    0    0    0
SMALL
NO_CHARGES


@<TRIPOS>ATOM
   1 C1            -0.0167     1.3801     0.0096 C.ar    
   2 C2             0.0021    -0.0041     0.0020 C.ar    
   3 C3             1.2102    -0.6832    -0.0127 C.ar    
   4 C4             2.4156     0.0227    -0.0204 C.ar    
   5 C5             2.4115     1.4002    -0.0130 C.ar    
   6 C6             1.1931     2.0954     0.0019 C.ar    
   7 C7             1.1818     3.5600     0.0094 C.2     
   8 O8             0.1263     4.1585     0.0223 O.2     
   9 C9             2.4810     4.3236     0.0011 C.3     
  10 C10            2.1898     5.8256     0.0114 C.3     
  11 C11            3.4890     6.5892     0.0031 C.ar    
  12 C12            4.1257     6.8612    -1.1998 C.ar    
  13 C13            4.0423     7.0229     1.1924 C.ar    
  14 C14            5.2331     7.7241     1.1880 C.ar    
  15 C15            5.8760     7.9944    -0.0115 C.ar    
  16 C16            5.3204     7.5640    -1.2068 C.ar    
  17 O17           -1.1996     2.0443     0.0189 O.3     
  18 O18            3.5970    -0.6521    -0.0349 O.3     
  19 O19            3.5785     6.4385    -2.3697 O.3     
  20 C20           -2.3887     1.2517     0.0202 C.3     
  21 C21            4.7918     0.1317    -0.0421 C.3     
  22 C22            4.2883     6.7539    -3.5692 C.3     
  23 O23            1.2222    -2.0406    -0.0192 O.3     
  24 C24           -0.0452    -2.7006    -0.0102 C.3     
  25 O25            7.0467     8.6845    -0.0152 O.3     
  26 C26            7.5582     9.1011     1.2524 C.3     
  27 H27           -0.9264    -0.5558     0.0079 H       
  28 H28            3.3446     1.9441    -0.0183 H       
  29 H29            3.0628     4.0603     0.8844 H       
  30 H30            3.0462     4.0692    -0.8955 H       
  31 H31            1.6079     6.0890    -0.8719 H       
  32 H32            1.6246     6.0800     0.9080 H       
  33 H33            3.5432     6.8138     2.1271 H       
  34 H34            5.6635     8.0624     2.1190 H       
  35 H35            5.8176     7.7764    -2.1418 H       
  36 H36           -2.4103     0.6275    -0.8731 H       
  37 H37           -2.4018     0.6178     0.9068 H       
  38 H38           -3.2610     1.9053     0.0279 H       
  39 H39            5.6592    -0.5283    -0.0535 H       
  40 H40            4.8055     0.7651    -0.9291 H       
  41 H41            4.8221     0.7561     0.8508 H       
  42 H42            5.2815     6.3065    -3.5319 H       
  43 H43            3.7443     6.3597    -4.4276 H       
  44 H44            4.3804     7.8359    -3.6631 H       
  45 H45           -0.5962    -2.4169     0.8864 H       
  46 H46           -0.6132    -2.4085    -0.8935 H       
  47 H47            0.1072    -3.7799    -0.0168 H       
  48 H48            6.8345     9.7549     1.7391 H       
  49 H49            7.7359     8.2263     1.8778 H       
  50 H50            8.4944     9.6401     1.1070 H       
@<TRIPOS>BOND
   1    1    2 ar
   2    1    6 ar
   3    1   17 1
   4    2    3 ar
   5    2   27 1
   6    3    4 ar
   7    3   23 1
   8    4    5 ar
   9    4   18 1
  10    5    6 ar
  11    5   28 1
  12    6    7 1
  13    7    8 2
  14    7    9 1
  15    9   10 1
  16    9   29 1
  17    9   30 1
  18   10   11 1
  19   10   31 1
  20   10   32 1
  21   11   13 ar
  22   11   12 ar
  23   12   16 ar
  24   12   19 1
  25   13   14 ar
  26   13   33 1
  27   14   15 ar
  28   14   34 1
  29   15   16 ar
  30   15   25 1
  31   16   35 1
  32   17   20 1
  33   18   21 1
  34   19   22 1
  35   20   36 1
  36   20   37 1
  37   20   38 1
  38   21   39 1
  39   21   40 1
  40   21   41 1
  41   22   42 1
  42   22   43 1
  43   22   44 1
  44   23   24 1
  45   24   45 1
  46   24   46 1
  47   24   47 1
  48   25   26 1
  49   26   48 1
  50   26   49 1
  51   26   50 1

#	End of record

