#	Name: ASD01470032
#	Creating user name:	WinNT
#	Creation time:	15. 06. 2019 19:21

#	Modifying user name:	WinNT
#	Modification time:	15. 06. 2019 19:21

#	Program:	/corina/corina34_cracker 3.40 0067  02.08.2006

@<TRIPOS>MOLECULE
ASD01470032
  83   89    0    0    0
SMALL
NO_CHARGES


@<TRIPOS>ATOM
   1 N1            -0.8512     1.2765     0.9772 N.am    
   2 C2             0.4910     0.7301     0.7974 C.3     
   3 C3             0.8510    -0.2179     1.9500 C.3     
   4 C4             0.3484    -1.6315     1.7003 C.3     
   5 C5            -0.9308    -1.6313     0.8798 C.3     
   6 N6            -1.9433    -0.7717     1.4944 N.am    
   7 C7            -1.8993     0.5654     1.3609 C.2     
   8 O8            -2.9209     1.1772     1.6066 O.2     
   9 C9            -3.0238    -1.3790     2.2754 C.3     
  10 C10           -1.0491     2.7055     0.7220 C.3     
  11 C11           -0.9070     3.4707     2.0125 C.ar    
  12 C12           -2.6432    -1.3926     3.7335 C.ar    
  13 C13           -2.8310    -0.2735     4.4915 C.ar    
  14 C14           -2.4777    -0.2874     5.8455 C.ar    
  15 C15           -1.9323    -1.4559     6.4112 C.ar    
  16 C16           -1.7527    -2.5830     5.6128 C.ar    
  17 C17           -2.1098    -2.5465     4.2948 C.ar    
  18 C18            0.3475     3.8460     2.4566 C.ar    
  19 C19            0.4850     4.5475     3.6395 C.ar    
  20 C20           -0.6378     4.8774     4.3847 C.ar    
  21 C21           -1.9032     4.4990     3.9361 C.ar    
  22 C22           -2.0317     3.8000     2.7457 C.ar    
  23 C23           -2.5385     0.6985     6.9197 C.2     
  24 N24           -2.0697     0.1402     7.9990 N.2     
  25 N25           -1.6876    -1.1784     7.7307 N.pl3   
  26 C26            0.5495    -0.0385    -0.5242 C.3     
  27 O27            2.2720    -0.2499     2.0983 O.3     
  28 C28            1.5592     0.6082    -1.4371 C.ar    
  29 C29            2.8962     0.2712    -1.3381 C.ar    
  30 C30            3.8224     0.8645    -2.1754 C.ar    
  31 C31            3.4115     1.7944    -3.1121 C.ar    
  32 C32            2.0744     2.1307    -3.2117 C.ar    
  33 C33            1.1476     1.5343    -2.3773 C.ar    
  34 C34           -1.4710    -3.0599     0.7884 C.3     
  35 O35            0.0980    -2.2666     2.9557 O.3     
  36 C36           -0.4805    -3.9253     0.0529 C.ar    
  37 C37            0.4327    -4.6848     0.7601 C.ar    
  38 C38            1.3413    -5.4786     0.0855 C.ar    
  39 C39            1.3365    -5.5133    -1.2964 C.ar    
  40 C40            0.4227    -4.7545    -2.0037 C.ar    
  41 C41           -0.4887    -3.9640    -1.3289 C.ar    
  42 N42           -3.0429     4.8293     4.6847 N.pl3   
  43 C43           -4.2004     5.3319     4.2140 C.2     
  44 N44           -5.0107     5.5013     5.2277 N.2     
  45 C45           -4.4105     5.1208     6.3548 C.2     
  46 N46           -3.2062     4.6960     6.0732 N.2     
  47 N47           -0.5014     5.5863     5.5815 N.pl3   
  48 H48            1.2107     1.5481     0.7672 H       
  49 H49            0.4055     0.1588     2.8707 H       
  50 H50            1.1146    -2.1927     1.1654 H       
  51 H51           -0.7131    -1.2680    -0.1245 H       
  52 H52           -3.9374    -0.7993     2.1437 H       
  53 H53           -3.1892    -2.4007     1.9336 H       
  54 H54           -0.3021     3.0541     0.0088 H       
  55 H55           -2.0461     2.8667     0.3119 H       
  56 H56           -3.2496     0.6182     4.0487 H       
  57 H57           -1.3350    -3.4847     6.0355 H       
  58 H58           -1.9690    -3.4230     3.6797 H       
  59 H59            1.2225     3.5900     1.8776 H       
  60 H60            1.4664     4.8386     3.9839 H       
  61 H61           -3.0099     3.5054     2.3954 H       
  62 H62           -2.9064     1.7103     6.8349 H       
  63 H63           -1.3103    -1.7972     8.3753 H       
  64 H64            0.8424    -1.0706    -0.3317 H       
  65 H65           -0.4320    -0.0216    -0.9981 H       
  66 H66            2.5804    -0.8287     2.8089 H       
  67 H67            3.2172    -0.4553    -0.6063 H       
  68 H68            4.8670     0.6017    -2.0976 H       
  69 H69            4.1352     2.2584    -3.7658 H       
  70 H70            1.7535     2.8575    -3.9433 H       
  71 H71            0.1030     1.7970    -2.4551 H       
  72 H72           -1.6238    -3.4555     1.7925 H       
  73 H73           -2.4194    -3.0561     0.2512 H       
  74 H74            0.8767    -2.3332     3.5251 H       
  75 H75            0.4365    -4.6578     1.8398 H       
  76 H76            2.0552    -6.0715     0.6380 H       
  77 H77            2.0468    -6.1330    -1.8236 H       
  78 H78            0.4191    -4.7813    -3.0833 H       
  79 H79           -1.2027    -3.3712    -1.8814 H       
  80 H80           -4.4214     5.5559     3.1808 H       
  81 H81           -4.8495     5.1536     7.3411 H       
  82 H82            0.3711     5.9076     5.8582 H       
  83 H83           -1.2792     5.7571     6.1353 H       
@<TRIPOS>BOND
   1    1    2 1
   2    1   10 1
   3    1    7 am
   4    2    3 1
   5    2   26 1
   6    2   48 1
   7    3    4 1
   8    3   27 1
   9    3   49 1
  10    4    5 1
  11    4   35 1
  12    4   50 1
  13    5    6 1
  14    5   34 1
  15    5   51 1
  16    6    7 am
  17    6    9 1
  18    7    8 2
  19    9   12 1
  20    9   52 1
  21    9   53 1
  22   10   11 1
  23   10   54 1
  24   10   55 1
  25   11   18 ar
  26   11   22 ar
  27   12   13 ar
  28   12   17 ar
  29   13   14 ar
  30   13   56 1
  31   14   15 ar
  32   14   23 1
  33   15   16 ar
  34   15   25 1
  35   16   17 ar
  36   16   57 1
  37   17   58 1
  38   18   19 ar
  39   18   59 1
  40   19   20 ar
  41   19   60 1
  42   20   21 ar
  43   20   47 1
  44   21   22 ar
  45   21   42 1
  46   22   61 1
  47   23   24 2
  48   23   62 1
  49   24   25 1
  50   25   63 1
  51   26   28 1
  52   26   64 1
  53   26   65 1
  54   27   66 1
  55   28   29 ar
  56   28   33 ar
  57   29   30 ar
  58   29   67 1
  59   30   31 ar
  60   30   68 1
  61   31   32 ar
  62   31   69 1
  63   32   33 ar
  64   32   70 1
  65   33   71 1
  66   34   36 1
  67   34   72 1
  68   34   73 1
  69   35   74 1
  70   36   37 ar
  71   36   41 ar
  72   37   38 ar
  73   37   75 1
  74   38   39 ar
  75   38   76 1
  76   39   40 ar
  77   39   77 1
  78   40   41 ar
  79   40   78 1
  80   41   79 1
  81   42   43 1
  82   42   46 1
  83   43   44 2
  84   43   80 1
  85   44   45 1
  86   45   46 2
  87   45   81 1
  88   47   82 1
  89   47   83 1

#	End of record

