#	Name: ASD01917124
#	Creating user name:	WinNT
#	Creation time:	15. 06. 2019 20:08

#	Modifying user name:	WinNT
#	Modification time:	15. 06. 2019 20:08

#	Program:	/corina/corina34_cracker 3.40 0067  02.08.2006

@<TRIPOS>MOLECULE
ASD01917124
  37   38    0    0    0
SMALL
NO_CHARGES


@<TRIPOS>ATOM
   1 C1            -0.0184     1.5028     0.0103 C.3     
   2 C2             0.0021    -0.0041     0.0020 C.2     
   3 N3             0.5336    -0.7572    -0.9242 N.2     
   4 C4             0.3685    -2.0487    -0.6084 C.2     
   5 N5            -0.2770    -2.1240     0.5347 N.2     
   6 N6            -0.5186    -0.8043     0.9497 N.pl3   
   7 C7            -1.2105    -0.3821     2.1700 C.3     
   8 C8            -0.2108    -0.2312     3.2876 C.2     
   9 O9            -0.6206     0.1501     4.5076 O.3     
  10 O10            0.9594    -0.4535     3.0855 O.2     
  11 C11            0.8363    -3.2032    -1.4153 C.ar    
  12 C12            1.4170     2.0324    -0.0006 C.3     
  13 C13            1.5120    -2.9890    -2.6153 C.ar    
  14 C14            0.6064    -4.5031    -0.9728 C.ar    
  15 C15            1.0454    -5.5766    -1.7306 C.ar    
  16 C16            1.7125    -5.3549    -2.9273 C.ar    
  17 C17            1.9461    -4.0642    -3.3641 C.ar    
  18 O18            0.8233    -6.8470    -1.3018 O.3     
  19 C19            1.3033    -7.9056    -2.1331 C.3     
  20 C20           -0.7584     2.0096    -1.2292 C.3     
  21 H21           -0.5286     1.8543     0.9071 H       
  22 H22           -1.7064     0.5726     1.9948 H       
  23 H23           -1.9524    -1.1319     2.4450 H       
  24 H24            0.0572     0.2332     5.1923 H       
  25 H25            1.9442     1.6713     0.8825 H       
  26 H26            1.9272     1.6808    -0.8974 H       
  27 H27            1.4022     3.1222     0.0054 H       
  28 H28            1.6956    -1.9819    -2.9594 H       
  29 H29            0.0875    -4.6741    -0.0412 H       
  30 H30            2.0541    -6.1930    -3.5167 H       
  31 H31            2.4656    -3.8968    -4.2960 H       
  32 H32            0.8310    -7.8405    -3.1133 H       
  33 H33            2.3842    -7.8187    -2.2441 H       
  34 H34            1.0609    -8.8649    -1.6760 H       
  35 H35           -1.7809     1.6323    -1.2215 H       
  36 H36           -0.7731     3.0995    -1.2232 H       
  37 H37           -0.2482     1.6581    -2.1260 H       
@<TRIPOS>BOND
   1    1    2 1
   2    1   12 1
   3    1   20 1
   4    1   21 1
   5    2    3 2
   6    2    6 1
   7    3    4 1
   8    4    5 2
   9    4   11 1
  10    5    6 1
  11    6    7 1
  12    7    8 1
  13    7   22 1
  14    7   23 1
  15    8    9 1
  16    8   10 2
  17    9   24 1
  18   11   13 ar
  19   11   14 ar
  20   12   25 1
  21   12   26 1
  22   12   27 1
  23   13   17 ar
  24   13   28 1
  25   14   15 ar
  26   14   29 1
  27   15   16 ar
  28   15   18 1
  29   16   17 ar
  30   16   30 1
  31   17   31 1
  32   18   19 1
  33   19   32 1
  34   19   33 1
  35   19   34 1
  36   20   35 1
  37   20   36 1
  38   20   37 1

#	End of record

