#	Name: ASD01028547
#	Creating user name:	WinNT
#	Creation time:	15. 06. 2019 18:57

#	Modifying user name:	WinNT
#	Modification time:	15. 06. 2019 18:57

#	Program:	/corina/corina34_cracker 3.40 0067  02.08.2006

@<TRIPOS>MOLECULE
ASD01028547
  45   49    0    0    0
SMALL
NO_CHARGES


@<TRIPOS>ATOM
   1 C1            -0.0164     1.3581     0.0095 C.2     
   2 N2             0.0021    -0.0041     0.0020 N.pl3   
   3 C3             1.1499     2.0629     0.0022 C.2     
   4 C4             2.3911     1.3807    -0.0133 C.2     
   5 C5             2.4110     0.0235    -0.0208 C.2     
   6 C6             1.1936    -0.6868    -0.0130 C.2     
   7 N7             0.8960    -1.9761    -0.0175 N.2     
   8 N8            -0.3823    -2.1221    -0.0063 N.2     
   9 C9            -0.9722    -0.9548     0.0058 C.2     
  10 C10           -2.4587    -0.7076     0.0210 C.3     
  11 C11           -2.9617     0.5674     2.0878 C.ar    
  12 C12           -2.9410    -0.6337     1.4468 C.ar    
  13 C13           -3.3604    -1.7953     2.0918 C.ar    
  14 C14           -3.8025    -1.7637     3.3787 C.ar    
  15 C15           -3.8388    -0.5428     4.0743 C.ar    
  16 C16           -3.4114     0.6375     3.4163 C.ar    
  17 N17           -4.2680    -0.4832     5.3391 N.ar    
  18 C18           -4.3047     0.6506     5.9947 C.ar    
  19 C19           -3.8980     1.8524     5.4066 C.ar    
  20 C20           -3.4478     1.8595     4.1126 C.ar    
  21 O21           -3.9491     3.0102     6.1166 O.3     
  22 C22           -4.4293     2.9267     7.4599 C.3     
  23 C23            1.1197     3.5421     0.0099 C.2     
  24 C24            1.5714     4.3901     0.9962 C.2     
  25 C25            1.4064     5.7243     0.7148 C.2     
  26 N26            0.8583     6.0557    -0.4166 N.2     
  27 S27            0.5008     4.6224    -1.2518 S.3     
  28 C28            1.8498     6.7796     1.6950 C.3     
  29 H29           -0.9606     1.8824     0.0168 H       
  30 H30            3.3166     1.9373    -0.0195 H       
  31 H31            3.3514    -0.5074    -0.0330 H       
  32 H32           -2.6758     0.2331    -0.4851 H       
  33 H33           -2.9679    -1.5227    -0.4930 H       
  34 H34           -2.6300     1.4604     1.5789 H       
  35 H35           -3.3345    -2.7360     1.5619 H       
  36 H36           -4.1247    -2.6734     3.8634 H       
  37 H37           -4.6584     0.6572     7.0152 H       
  38 H38           -3.1289     2.7771     3.6408 H       
  39 H39           -3.7873     2.2589     8.0344 H       
  40 H40           -4.4188     3.9185     7.9118 H       
  41 H41           -5.4480     2.5389     7.4582 H       
  42 H42            2.0175     4.0360     1.9138 H       
  43 H43            2.8840     7.0554     1.4887 H       
  44 H44            1.2127     7.6584     1.5957 H       
  45 H45            1.7736     6.3882     2.7094 H       
@<TRIPOS>BOND
   1    1    2 1
   2    1    3 2
   3    1   29 1
   4    2    6 1
   5    2    9 1
   6    3    4 1
   7    3   23 1
   8    4    5 2
   9    4   30 1
  10    5    6 1
  11    5   31 1
  12    6    7 2
  13    7    8 1
  14    8    9 2
  15    9   10 1
  16   10   12 1
  17   10   32 1
  18   10   33 1
  19   11   12 ar
  20   11   16 ar
  21   11   34 1
  22   12   13 ar
  23   13   14 ar
  24   13   35 1
  25   14   15 ar
  26   14   36 1
  27   15   16 ar
  28   15   17 ar
  29   16   20 ar
  30   17   18 ar
  31   18   19 ar
  32   18   37 1
  33   19   20 ar
  34   19   21 1
  35   20   38 1
  36   21   22 1
  37   22   39 1
  38   22   40 1
  39   22   41 1
  40   23   24 2
  41   23   27 1
  42   24   25 1
  43   24   42 1
  44   25   26 2
  45   25   28 1
  46   26   27 1
  47   28   43 1
  48   28   44 1
  49   28   45 1

#	End of record

