#	Name: ASD02980001
#	Creating user name:	WinNT
#	Creation time:	15. 06. 2019 20:26

#	Modifying user name:	WinNT
#	Modification time:	15. 06. 2019 20:26

#	Program:	/corina/corina34_cracker 3.40 0067  02.08.2006

@<TRIPOS>MOLECULE
ASD02980001
  64   66    0    0    0
SMALL
NO_CHARGES


@<TRIPOS>ATOM
   1 O1            -0.0198     1.6058     0.0109 O.3     
   2 P2             0.0021    -0.0041     0.0020 P.3     
   3 O3             0.8558    -0.5140     1.1844 O.co2   
   4 O4            -1.5013    -0.5620     0.1457 O.3     
   5 O5             0.6120    -0.5035    -1.3267 O.co2   
   6 P6            -2.1324    -1.9720     0.5990 P.3     
   7 O7            -1.2829    -3.1260     0.0214 O.co2   
   8 O8            -2.1405    -2.0605     2.1415 O.co2   
   9 C9             1.1680     2.4003     0.0038 C.3     
  10 O10           -3.6404    -2.0873     0.0470 O.3     
  11 C11           -4.4350    -3.2660     0.1937 C.3     
  12 C12           -5.8087    -3.0372    -0.4398 C.3     
  13 O13            1.5512     2.6725    -1.3457 O.3     
  14 C14            0.5559     3.3585    -2.1078 C.3     
  15 C15            0.2673     4.7165    -1.4626 C.3     
  16 C16           -0.1816     4.4998    -0.0142 C.3     
  17 C17            0.9039     3.7198     0.7338 C.3     
  18 O18           -5.6711    -2.8875    -1.8577 O.3     
  19 C19           -6.3798    -3.9386    -2.5331 C.3     
  20 C20           -7.4719    -4.3971    -1.5341 C.3     
  21 C21           -6.7133    -4.2621    -0.1857 C.3     
  22 N22           -6.9954    -3.4294    -3.7611 N.am    
  23 C23           -6.8179    -2.1426    -4.1115 C.2     
  24 N24           -7.3720    -1.6485    -5.2342 N.am    
  25 C25           -8.1178    -2.4416    -6.0298 C.2     
  26 C26           -8.3122    -3.7978    -5.6731 C.2     
  27 C27           -7.7409    -4.2684    -4.5438 C.2     
  28 O28           -6.1479    -1.4157    -3.4037 O.2     
  29 O29           -8.6198    -1.9953    -7.0456 O.2     
  30 O30           -8.6058    -3.5285    -1.5763 O.3     
  31 O31           -7.6232    -4.0086     0.8866 O.3     
  32 O32           -0.7689     5.3800    -2.1895 O.3     
  33 N33            0.4536     3.4418     2.0999 N.am    
  34 C34            1.0624     3.5696    -3.5361 C.3     
  35 O35           -0.3827     5.7653     0.6184 O.3     
  36 O36            1.2222     2.3023    -4.1769 O.3     
  37 C37            1.3572     3.2380     3.0790 C.2     
  38 C38            0.8940     2.9521     4.4842 C.3     
  39 O39            2.5431     3.2847     2.8290 O.2     
  40 H40            1.9697     1.8601     0.5074 H       
  41 H41           -3.9407    -4.1014    -0.3023 H       
  42 H42           -4.5565    -3.4927     1.2529 H       
  43 H43           -6.2668    -2.1433    -0.0164 H       
  44 H44           -0.3581     2.7650    -2.1301 H       
  45 H45            1.1709     5.3259    -1.4766 H       
  46 H46           -1.1122     3.9325    -0.0019 H       
  47 H47            1.8204     4.3090     0.7642 H       
  48 H48           -5.7052    -4.7639    -2.7612 H       
  49 H49           -7.7641    -5.4309    -1.7187 H       
  50 H50           -6.1152    -5.1513     0.0137 H       
  51 H51           -7.2345    -0.7182    -5.4717 H       
  52 H52           -8.9066    -4.4481    -6.2977 H       
  53 H53           -7.8779    -5.3003    -4.2558 H       
  54 H54           -9.3146    -3.7772    -0.9672 H       
  55 H55           -8.2704    -4.7130     1.0281 H       
  56 H56           -0.5542     5.5455    -3.1177 H       
  57 H57           -0.4948     3.4045     2.2998 H       
  58 H58            0.3421     4.1696    -4.0921 H       
  59 H59            2.0217     4.0865    -3.5087 H       
  60 H60           -1.0534     6.3160     0.1919 H       
  61 H61            1.5415     2.3598    -5.0879 H       
  62 H62            0.7785     1.8764     4.6169 H       
  63 H63            1.6312     3.3286     5.1934 H       
  64 H64           -0.0626     3.4445     4.6587 H       
@<TRIPOS>BOND
   1    1    2 1
   2    1    9 1
   3    2    3 ar
   4    2    4 1
   5    2    5 ar
   6    4    6 1
   7    6    7 ar
   8    6    8 ar
   9    6   10 1
  10    9   13 1
  11    9   17 1
  12    9   40 1
  13   10   11 1
  14   11   12 1
  15   11   41 1
  16   11   42 1
  17   12   18 1
  18   12   21 1
  19   12   43 1
  20   13   14 1
  21   14   15 1
  22   14   34 1
  23   14   44 1
  24   15   16 1
  25   15   32 1
  26   15   45 1
  27   16   17 1
  28   16   35 1
  29   16   46 1
  30   17   33 1
  31   17   47 1
  32   18   19 1
  33   19   20 1
  34   19   22 1
  35   19   48 1
  36   20   21 1
  37   20   30 1
  38   20   49 1
  39   21   31 1
  40   21   50 1
  41   22   23 am
  42   22   27 1
  43   23   24 am
  44   23   28 2
  45   24   25 am
  46   24   51 1
  47   25   26 1
  48   25   29 2
  49   26   27 2
  50   26   52 1
  51   27   53 1
  52   30   54 1
  53   31   55 1
  54   32   56 1
  55   33   37 am
  56   33   57 1
  57   34   36 1
  58   34   58 1
  59   34   59 1
  60   35   60 1
  61   36   61 1
  62   37   38 1
  63   37   39 2
  64   38   62 1
  65   38   63 1
  66   38   64 1

#	End of record

