#	Name: ASD01900432
#	Creating user name:	WinNT
#	Creation time:	15. 06. 2019 19:51

#	Modifying user name:	WinNT
#	Modification time:	15. 06. 2019 19:51

#	Program:	/corina/corina34_cracker 3.40 0067  02.08.2006

@<TRIPOS>MOLECULE
ASD01900432
  26   28    0    0    0
SMALL
NO_CHARGES


@<TRIPOS>ATOM
   1 C1            -0.0263     1.3950     0.1279 C.ar    
   2 C2             0.0063     0.0001    -0.0606 C.ar    
   3 C3             1.2233    -0.6706     0.0567 C.ar    
   4 C4             2.3508     0.0690     0.3548 C.ar    
   5 C5             2.2451     1.4429     0.5277 C.ar    
   6 N6             1.0909     2.0597     0.4131 N.ar    
   7 N7            -2.1143     0.7217    -0.3261 N.2     
   8 N8            -1.2752    -0.3973    -0.3370 N.pl3   
   9 C9            -1.4236     1.7963    -0.0513 C.2     
  10 N10           -1.9266     3.0975     0.0450 N.pl3   
  11 C11           -3.3038     3.3227    -0.0405 C.ar    
  12 C12           -4.1961     2.3415     0.3728 C.ar    
  13 C13           -5.5561     2.5662     0.2874 C.ar    
  14 C14           -6.0304     3.7683    -0.2101 C.ar    
  15 C15           -5.1429     4.7478    -0.6228 C.ar    
  16 C16           -3.7820     4.5301    -0.5335 C.ar    
  17 F17           -7.3612     3.9855    -0.2936 F       
  18 H18            1.2824    -1.7401    -0.0815 H       
  19 H19            3.3095    -0.4185     0.4533 H       
  20 H20            3.1302     2.0162     0.7607 H       
  21 H21           -1.5558    -1.3090    -0.5127 H       
  22 H22           -1.3200     3.8438     0.1710 H       
  23 H23           -3.8266     1.4036     0.7603 H       
  24 H24           -6.2502     1.8037     0.6086 H       
  25 H25           -5.5151     5.6844    -1.0108 H       
  26 H26           -3.0901     5.2961    -0.8513 H       
@<TRIPOS>BOND
   1    1    2 ar
   2    1    6 ar
   3    1    9 1
   4    2    3 ar
   5    2    8 1
   6    3    4 ar
   7    3   18 1
   8    4    5 ar
   9    4   19 1
  10    5    6 ar
  11    5   20 1
  12    7    8 1
  13    7    9 2
  14    8   21 1
  15    9   10 1
  16   10   11 1
  17   10   22 1
  18   11   12 ar
  19   11   16 ar
  20   12   13 ar
  21   12   23 1
  22   13   14 ar
  23   13   24 1
  24   14   15 ar
  25   14   17 1
  26   15   16 ar
  27   15   25 1
  28   16   26 1

#	End of record

