#	Name: ASD01911729
#	Creating user name:	WinNT
#	Creation time:	15. 06. 2019 19:58

#	Modifying user name:	WinNT
#	Modification time:	15. 06. 2019 19:58

#	Program:	/corina/corina34_cracker 3.40 0067  02.08.2006

@<TRIPOS>MOLECULE
ASD01911729
  41   43    0    0    0
SMALL
NO_CHARGES


@<TRIPOS>ATOM
   1 N1             0.0316     1.1536    -0.6874 N.am    
   2 C2             0.0021    -0.0041     0.0020 C.2     
   3 C3            -1.2508    -0.7543     0.1205 C.2     
   4 C4            -1.3862    -2.1135     0.0310 C.2     
   5 S5            -2.8471    -0.0659     0.4110 S.3     
   6 C6            -3.5482    -1.6812     0.3759 C.2     
   7 N7            -2.6016    -2.5625     0.1683 N.2     
   8 C8            -4.9366    -1.9845     0.5524 C.1     
   9 C9            -6.0748    -2.2331     0.6971 C.1     
  10 C10           -7.4631    -2.5364     0.8736 C.ar    
  11 C11           -7.9036    -3.8619     0.8253 C.ar    
  12 C12           -9.2470    -4.1463     0.9973 C.ar    
  13 C13          -10.1534    -3.1169     1.2168 C.ar    
  14 C14           -9.7203    -1.8046     1.2647 C.ar    
  15 C15           -8.3830    -1.5082     1.1009 C.ar    
  16 O16            1.0162    -0.4263     0.5262 O.2     
  17 C17           -1.1498     1.6127    -1.4306 C.3     
  18 C18           -1.4877     3.0395    -0.9870 C.3     
  19 C19           -0.2535     3.9282    -1.1574 C.3     
  20 C20            0.8809     3.4036    -0.2741 C.3     
  21 C21            1.2438     1.9837    -0.7051 C.3     
  22 O22           -9.6798    -5.4337     0.9510 O.3     
  23 C23          -11.0793    -5.6548     1.1366 C.3     
  24 H24           -0.5446    -2.7679    -0.1417 H       
  25 H25           -7.1981    -4.6614     0.6538 H       
  26 H26          -11.2011    -3.3425     1.3503 H       
  27 H27          -10.4308    -1.0092     1.4350 H       
  28 H28           -8.0482    -0.4821     1.1392 H       
  29 H29           -0.9355     1.6034    -2.4993 H       
  30 H30           -1.9928     0.9549    -1.2191 H       
  31 H31           -2.3024     3.4272    -1.5985 H       
  32 H32           -1.7895     3.0330     0.0604 H       
  33 H33            0.0626     3.9146    -2.2005 H       
  34 H34           -0.4983     4.9495    -0.8656 H       
  35 H35            1.7519     4.0505    -0.3782 H       
  36 H36            0.5568     3.3936     0.7665 H       
  37 H37            1.9813     1.5703    -0.0171 H       
  38 H38            1.6531     2.0017    -1.7151 H       
  39 H39          -11.3797    -5.2798     2.1150 H       
  40 H40          -11.6361    -5.1305     0.3599 H       
  41 H41          -11.2896    -6.7226     1.0765 H       
@<TRIPOS>BOND
   1    1    2 am
   2    1   17 1
   3    1   21 1
   4    2    3 1
   5    2   16 2
   6    3    4 2
   7    3    5 1
   8    4    7 1
   9    4   24 1
  10    5    6 1
  11    6    7 2
  12    6    8 1
  13    8    9 3
  14    9   10 1
  15   10   11 ar
  16   10   15 ar
  17   11   12 ar
  18   11   25 1
  19   12   13 ar
  20   12   22 1
  21   13   14 ar
  22   13   26 1
  23   14   15 ar
  24   14   27 1
  25   15   28 1
  26   17   18 1
  27   17   29 1
  28   17   30 1
  29   18   19 1
  30   18   31 1
  31   18   32 1
  32   19   20 1
  33   19   33 1
  34   19   34 1
  35   20   21 1
  36   20   35 1
  37   20   36 1
  38   21   37 1
  39   21   38 1
  40   22   23 1
  41   23   39 1
  42   23   40 1
  43   23   41 1

#	End of record

