#	Name: ASD01882616
#	Creating user name:	WinNT
#	Creation time:	15. 06. 2019 19:44

#	Modifying user name:	WinNT
#	Modification time:	15. 06. 2019 19:44

#	Program:	/corina/corina34_cracker 3.40 0067  02.08.2006

@<TRIPOS>MOLECULE
ASD01882616
  29   30    0    0    0
SMALL
NO_CHARGES


@<TRIPOS>ATOM
   1 C1            -0.0167     1.3833     0.0096 C.ar    
   2 C2             0.0021    -0.0041     0.0020 C.ar    
   3 C3             1.2270    -0.6629    -0.0132 C.ar    
   4 C4             2.3845     0.0990    -0.0201 C.ar    
   5 C5             2.2850     1.4775    -0.0118 C.ar    
   6 N6             1.1076     2.0712     0.0026 N.ar    
   7 O7            -1.1598    -0.7092     0.0097 O.3     
   8 C8             3.5390     2.3134    -0.0187 C.3     
   9 C9             3.1633     3.7965    -0.0073 C.3     
  10 C10            4.4364     4.6451    -0.0144 C.3     
  11 C11            5.2722     4.3211     1.2256 C.3     
  12 C12            5.6478     2.8380     1.2141 C.3     
  13 C13            4.3748     1.9894     1.2212 C.3     
  14 O14            4.2983     2.0234    -1.1941 O.3     
  15 H15           -0.9624     1.9049     0.0169 H       
  16 H16            1.2749    -1.7418    -0.0191 H       
  17 H17            3.3530    -0.3787    -0.0316 H       
  18 H18           -1.5048    -0.9085    -0.8714 H       
  19 H19            2.5679     4.0273    -0.8906 H       
  20 H20            2.5842     4.0177     0.8892 H       
  21 H21            5.0156     4.4239    -0.9109 H       
  22 H22            4.1688     5.7017    -0.0062 H       
  23 H23            6.1792     4.9257     1.2205 H       
  24 H24            4.6931     4.5423     2.1221 H       
  25 H25            6.2270     2.6168     0.3176 H       
  26 H26            6.2433     2.6072     2.0975 H       
  27 H27            3.7956     2.2106     2.1177 H       
  28 H28            4.6424     0.9328     1.2130 H       
  29 H29            4.5713     1.0987    -1.2677 H       
@<TRIPOS>BOND
   1    1    2 ar
   2    1    6 ar
   3    1   15 1
   4    2    3 ar
   5    2    7 1
   6    3    4 ar
   7    3   16 1
   8    4    5 ar
   9    4   17 1
  10    5    6 ar
  11    5    8 1
  12    7   18 1
  13    8    9 1
  14    8   13 1
  15    8   14 1
  16    9   10 1
  17    9   19 1
  18    9   20 1
  19   10   11 1
  20   10   21 1
  21   10   22 1
  22   11   12 1
  23   11   23 1
  24   11   24 1
  25   12   13 1
  26   12   25 1
  27   12   26 1
  28   13   27 1
  29   13   28 1
  30   14   29 1

#	End of record

