#	Name: ASD01813252
#	Creating user name:	WinNT
#	Creation time:	15. 06. 2019 19:30

#	Modifying user name:	WinNT
#	Modification time:	15. 06. 2019 19:30

#	Program:	/corina/corina34_cracker 3.40 0067  02.08.2006

@<TRIPOS>MOLECULE
ASD01813252
  53   56    0    0    0
SMALL
NO_CHARGES


@<TRIPOS>ATOM
   1 Cl1            0.0000     0.0000     0.0000 Cl      
   2 H2             0.0000     1.3700     0.0000 H       
   3 C3            13.8792    19.2046    12.5503 C.3     
   4 C4            13.7850    17.7267    12.8298 C.2     
   5 N5            13.4297    16.9021    11.8730 N.2     
   6 C6            13.3399    15.5850    12.1006 C.2     
   7 C7            12.9949    14.5127    11.2865 C.2     
   8 C8            12.5719    14.1449     9.8876 C.3     
   9 N9            12.3927    12.6901     9.8447 N.am    
  10 C10           12.6988    12.1813    11.1853 C.3     
  11 C11           13.0701    13.3604    12.0507 C.2     
  12 N12           13.4405    13.6844    13.2732 N.2     
  13 N13           13.6180    15.0702    13.3404 N.pl3   
  14 C14           13.9904    15.9064    14.3541 C.2     
  15 C15           14.3001    15.3568    15.7227 C.3     
  16 C16           14.0833    17.2373    14.1107 C.2     
  17 Cl17          14.5604    18.3271    15.3750 Cl      
  18 C18           12.0173    11.9595     8.7761 C.2     
  19 O19           11.6961    12.5143     7.7428 O.2     
  20 C20           11.9962    10.4879     8.8600 C.ar    
  21 C21           13.0526     9.8040     9.4675 C.ar    
  22 C22           13.0278     8.4292     9.5436 C.ar    
  23 C23           11.9570     7.7186     9.0192 C.ar    
  24 F24           11.9418     6.3700     9.0987 F       
  25 C25           10.9047     8.3845     8.4155 C.ar    
  26 C26           10.9131     9.7676     8.3357 C.ar    
  27 O27            9.8801    10.4222     7.7485 O.3     
  28 C28            8.8903     9.6220     7.0990 C.3     
  29 C29            7.5698     9.5207     7.8807 C.3     
  30 C30            6.8503     9.6411     6.5269 C.3     
  31 N31            5.6485    10.4846     6.5723 N.3     
  32 C32            8.1005    10.3771     6.0169 C.3     
  33 H33           14.8860    19.4467    12.2101 H       
  34 H34           13.1597    19.4748    11.7774 H       
  35 H35           13.6598    19.7614    13.4614 H       
  36 H36           11.6322    14.6403     9.6434 H       
  37 H37           13.3434    14.4432     9.1778 H       
  38 H38           11.8235    11.6806    11.5991 H       
  39 H39           13.5345    11.4835    11.1335 H       
  40 H40           15.3603    15.1110    15.7842 H       
  41 H41           14.0559    16.1038    16.4780 H       
  42 H42           13.7082    14.4581    15.8959 H       
  43 H43           13.8879    10.3530     9.8765 H       
  44 H44           13.8450     7.9017    10.0131 H       
  45 H45           10.0743     7.8257     8.0097 H       
  46 H46            9.2767     8.6589     6.7654 H       
  47 H47            7.4240     8.5570     8.3685 H       
  48 H48            7.3910    10.3648     8.5468 H       
  49 H49            6.6765     8.6825     6.0381 H       
  50 H50            5.2085    10.5362     5.6657 H       
  51 H51            5.0000    10.1528     7.2705 H       
  52 H52            8.0668    11.4553     6.1734 H       
  53 H53            8.3831    10.1047     5.0000 H       
@<TRIPOS>BOND
   1    1    2 1
   2    3    4 1
   3    3   33 1
   4    3   34 1
   5    3   35 1
   6    4   16 1
   7    4    5 2
   8    5    6 1
   9    6   13 1
  10    6    7 2
  11    7   11 1
  12    7    8 1
  13    8    9 1
  14    8   36 1
  15    8   37 1
  16    9   10 1
  17    9   18 am
  18   10   11 1
  19   10   38 1
  20   10   39 1
  21   11   12 2
  22   12   13 1
  23   13   14 1
  24   14   15 1
  25   14   16 2
  26   15   40 1
  27   15   41 1
  28   15   42 1
  29   16   17 1
  30   18   19 2
  31   18   20 1
  32   20   26 ar
  33   20   21 ar
  34   21   22 ar
  35   21   43 1
  36   22   23 ar
  37   22   44 1
  38   23   24 1
  39   23   25 ar
  40   25   26 ar
  41   25   45 1
  42   26   27 1
  43   27   28 1
  44   28   32 1
  45   28   29 1
  46   28   46 1
  47   29   30 1
  48   29   47 1
  49   29   48 1
  50   30   31 1
  51   30   32 1
  52   30   49 1
  53   31   50 1
  54   31   51 1
  55   32   52 1
  56   32   53 1

#	End of record

