#	Name: ASD00731015
#	Creating user name:	WinNT
#	Creation time:	15. 06. 2019 18:37

#	Modifying user name:	WinNT
#	Modification time:	15. 06. 2019 18:37

#	Program:	/corina/corina34_cracker 3.40 0067  02.08.2006

@<TRIPOS>MOLECULE
ASD00731015
 181  180    0    0    0
SMALL
NO_CHARGES


@<TRIPOS>ATOM
   1 C1            -0.2017    -0.0484    -0.9348 C.2     
   2 O2            -0.3429    -1.2143    -1.2375 O.2     
   3 N3             2.1758    -0.4891    -1.1411 N.am    
   4 C4             1.1814     0.5411    -0.8313 C.3     
   5 C5            -3.6162     1.2464    -1.1025 C.2     
   6 O6            -3.2356     2.3923    -1.2160 O.2     
   7 N7            -1.2819     0.7215    -0.6963 N.am    
   8 C8            -2.6267     0.1500    -0.8028 C.3     
   9 C9            -2.9994    -0.5264     0.5180 C.3     
  10 O10           -3.0879     0.4588     1.5493 O.3     
  11 C11           -7.2536     1.6066    -1.0560 C.2     
  12 O12           -7.5202     0.4310    -0.9225 O.2     
  13 N13           -4.9240     0.9534    -1.2445 N.am    
  14 C14           -5.8860     2.0193    -1.5358 C.3     
  15 C15           -5.9287     2.2692    -3.0447 C.3     
  16 C16           -4.5404     2.6891    -3.5316 C.3     
  17 O17           -6.3264     1.0713    -3.7148 O.3     
  18 C18          -10.5240     2.9290    -1.2741 C.2     
  19 O19          -10.1168     3.7437    -2.0750 O.2     
  20 N20           -8.1805     2.5439    -0.7752 N.am    
  21 C21           -9.5483     2.1431    -0.4366 C.3     
  22 C22           -9.8090     2.4207     1.0453 C.3     
  23 C23           -8.8785     1.5835     1.8845 C.2     
  24 O24           -8.0552     0.8774     1.3520 O.2     
  25 O25           -8.9642     1.6224     3.2234 O.3     
  26 C26          -14.1231     3.5673    -1.2348 C.2     
  27 O27          -14.2620     3.0361    -0.1534 O.2     
  28 N28          -11.8490     2.7266    -1.1331 N.am    
  29 C29          -12.7974     3.4906    -1.9473 C.3     
  30 C30          -12.9839     2.7973    -3.2984 C.3     
  31 C31          -11.6659     2.8301    -4.0747 C.3     
  32 C32          -11.8523     2.1367    -5.4257 C.3     
  33 N33          -10.5903     2.1682    -6.1691 N.pl3   
  34 C34          -10.5147     1.6016    -7.4194 C.2     
  35 N35          -11.5658     1.0365    -7.9435 N.2     
  36 N36           -9.3303     1.6311    -8.1170 N.pl3   
  37 C37          -17.5439     4.5092    -2.1148 C.2     
  38 O38          -17.2780     4.5877    -3.2955 O.2     
  39 N39          -15.1544     4.2263    -1.7994 N.am    
  40 C40          -16.4432     4.3008    -1.1068 C.3     
  41 C41          -16.4257     5.4712    -0.1215 C.3     
  42 C42          -15.3926     5.2003     0.9740 C.3     
  43 C43          -15.2856     6.4227     1.8878 C.3     
  44 C44          -15.8277     3.9855     1.7962 C.3     
  45 C45          -21.0664     5.4816    -2.0161 C.2     
  46 O46          -21.0135     5.7627    -0.8375 O.2     
  47 N47          -18.8238     4.6083    -1.7042 N.am    
  48 C48          -19.8938     4.8109    -2.6841 C.3     
  49 C49          -20.3330     3.4576    -3.2468 C.3     
  50 C50          -19.1781     2.8326    -4.0319 C.3     
  51 C51          -19.6172     1.4793    -4.5946 C.3     
  52 N52          -18.5114     0.8809    -5.3464 N.pl3   
  53 C53          -18.6727    -0.3449    -5.9475 C.2     
  54 N54          -17.6889    -0.8773    -6.6164 N.2     
  55 N55          -19.8719    -1.0092    -5.8431 N.pl3   
  56 C56          -24.1817     5.3785    -1.4225 C.2     
  57 O57          -23.8791     4.2107    -1.4902 O.2     
  58 N58          -22.1739     5.7690    -2.7284 N.am    
  59 C59          -23.3137     6.4211    -2.0790 C.3     
  60 C60          -24.1316     7.1799    -3.1260 C.3     
  61 C61          -23.2891     8.3189    -3.7038 C.3     
  62 C62          -24.1070     9.0778    -4.7508 C.3     
  63 C63          -23.2645    10.2167    -5.3286 C.3     
  64 N64          -24.0497    10.9453    -6.3338 N.3     
  65 O65          -25.2909     5.7473    -0.7627 O.3     
  66 C66            3.4892    -0.1886    -1.1113 C.2     
  67 O67            3.8480     0.9348    -0.8280 O.2     
  68 C68           21.6109    -4.5906    -2.9596 C.3     
  69 C69           20.5724    -3.5147    -2.6360 C.3     
  70 C70           19.1682    -4.1132    -2.7411 C.3     
  71 C71           18.1297    -3.0372    -2.4175 C.3     
  72 C72           16.7255    -3.6357    -2.5226 C.3     
  73 C73           15.6870    -2.5597    -2.1990 C.3     
  74 C74           14.2829    -3.1582    -2.3041 C.3     
  75 C75           13.2443    -2.0823    -1.9805 C.3     
  76 C76           11.8402    -2.6808    -2.0856 C.3     
  77 C77           10.8017    -1.6048    -1.7620 C.3     
  78 C78            9.3975    -2.2033    -1.8671 C.3     
  79 C79            8.3590    -1.1273    -1.5435 C.3     
  80 C80            6.9548    -1.7258    -1.6485 C.3     
  81 C81            5.9163    -0.6499    -1.3250 C.3     
  82 C82            4.5121    -1.2483    -1.4300 C.3     
  83 H83            1.8888    -1.3876    -1.3677 H       
  84 H84            1.2791     1.3648    -1.5385 H       
  85 H85            1.3441     0.9104     0.1813 H       
  86 H86           -1.1690     1.6540    -0.4542 H       
  87 H87           -2.6459    -0.5864    -1.6062 H       
  88 H88           -3.9614    -1.0276     0.4107 H       
  89 H89           -2.2355    -1.2585     0.7796 H       
  90 H90           -3.3213     0.1005     2.4166 H       
  91 H91           -5.2284     0.0369    -1.1537 H       
  92 H92           -5.5820     2.9328    -1.0247 H       
  93 H93           -6.6450     3.0617    -3.2615 H       
  94 H94           -3.8482     1.8546    -3.4194 H       
  95 H95           -4.5953     2.9769    -4.5815 H       
  96 H96           -4.1887     3.5350    -2.9410 H       
  97 H97           -7.1992     0.7463    -3.4546 H       
  98 H98           -7.9419     3.4838    -0.7974 H       
  99 H99           -9.6746     1.0787    -0.6345 H       
 100 H100          -9.6351     3.4765     1.2532 H       
 101 H101         -10.8417     2.1683     1.2860 H       
 102 H102          -8.3461     1.0680     3.7192 H       
 103 H103         -12.1746     2.0750    -0.4926 H       
 104 H104         -12.4114     4.4976    -2.1059 H       
 105 H105         -13.2849     1.7621    -3.1371 H       
 106 H106         -13.7547     3.3151    -3.8692 H       
 107 H107         -11.3649     3.8652    -4.2360 H       
 108 H108         -10.8950     2.3123    -3.5039 H       
 109 H109         -12.1533     1.1016    -5.2644 H       
 110 H110         -12.6232     2.6545    -5.9965 H       
 111 H111          -9.8081     2.5887    -5.7790 H       
 112 H112         -11.5125     0.6367    -8.8257 H       
 113 H113          -8.5481     2.0516    -7.7270 H       
 114 H114          -9.2770     1.2313    -8.9992 H       
 115 H115         -15.0434     4.6511    -2.6643 H       
 116 H116         -16.6184     3.3718    -0.5643 H       
 117 H117         -16.1628     6.3874    -0.6502 H       
 118 H118         -17.4122     5.5819     0.3288 H       
 119 H119         -14.4228     5.0017     0.5177 H       
 120 H120         -16.2554     6.6213     2.3441 H       
 121 H121         -14.5495     6.2297     2.6682 H       
 122 H122         -14.9756     7.2882     1.3020 H       
 123 H123         -16.7974     4.1840     2.2524 H       
 124 H124         -15.9039     3.1146     1.1452 H       
 125 H125         -15.0916     3.7925     2.5766 H       
 126 H126         -19.0364     4.5456    -0.7599 H       
 127 H127         -19.5289     5.4406    -3.4956 H       
 128 H128         -20.6141     2.7970    -2.4266 H       
 129 H129         -21.1875     3.5992    -3.9085 H       
 130 H130         -18.8969     3.4932    -4.8522 H       
 131 H131         -18.3235     2.6910    -3.3703 H       
 132 H132         -19.8984     0.8188    -3.7744 H       
 133 H133         -20.4718     1.6210    -5.2563 H       
 134 H134         -17.6653     1.3496    -5.4200 H       
 135 H135         -17.8027    -1.7422    -7.0406 H       
 136 H136         -20.6041    -0.6130    -5.3454 H       
 137 H137         -19.9857    -1.8741    -6.2673 H       
 138 H138         -22.2162     5.5442    -3.6710 H       
 139 H139         -22.9514     7.1196    -1.3247 H       
 140 H140         -24.4190     6.4983    -3.9265 H       
 141 H141         -25.0270     7.5908    -2.6596 H       
 142 H142         -23.0017     9.0005    -2.9033 H       
 143 H143         -22.3937     7.9080    -4.1701 H       
 144 H144         -24.3944     8.3961    -5.5513 H       
 145 H145         -25.0024     9.4886    -4.2844 H       
 146 H146         -22.9771    10.8984    -4.5281 H       
 147 H147         -22.3690     9.8058    -5.7950 H       
 148 H148         -23.5148    11.7033    -6.7307 H       
 149 H149         -24.3828    10.3219    -7.0539 H       
 150 H150         -25.8156     5.0430    -0.3580 H       
 151 H151          22.6112    -4.1643    -2.8847 H       
 152 H152          21.5131    -5.4143    -2.2524 H       
 153 H153          21.4481    -4.9599    -3.9722 H       
 154 H154          20.7351    -3.1454    -1.6235 H       
 155 H155          20.6701    -2.6910    -3.3432 H       
 156 H156          19.0055    -4.4824    -3.7536 H       
 157 H157          19.0705    -4.9368    -2.0339 H       
 158 H158          18.2924    -2.6680    -1.4050 H       
 159 H159          18.2274    -2.2135    -3.1247 H       
 160 H160          16.5628    -4.0049    -3.5351 H       
 161 H161          16.6278    -4.4594    -1.8154 H       
 162 H162          15.8498    -2.1905    -1.1864 H       
 163 H163          15.7848    -1.7361    -2.9062 H       
 164 H164          14.1201    -3.5275    -3.3166 H       
 165 H165          14.1851    -3.9819    -1.5969 H       
 166 H166          13.4071    -1.7130    -0.9679 H       
 167 H167          13.3421    -1.2586    -2.6877 H       
 168 H168          11.6774    -3.0500    -3.0981 H       
 169 H169          11.7424    -3.5044    -1.3784 H       
 170 H170          10.9644    -1.2356    -0.7494 H       
 171 H171          10.8994    -0.7811    -2.4692 H       
 172 H172           9.2347    -2.5725    -2.8796 H       
 173 H173           9.2998    -3.0270    -1.1599 H       
 174 H174           8.5217    -0.7581    -0.5309 H       
 175 H175           8.4567    -0.3037    -2.2507 H       
 176 H176           6.7921    -2.0951    -2.6611 H       
 177 H177           6.8571    -2.5495    -0.9414 H       
 178 H178           6.0791    -0.2806    -0.3124 H       
 179 H179           6.0140     0.1738    -2.0322 H       
 180 H180           4.4144    -2.0720    -0.7228 H       
 181 H181           4.3494    -1.6176    -2.4426 H       
@<TRIPOS>BOND
   1    1    2 2
   2    1    4 1
   3    1    7 am
   4    3    4 1
   5    3   66 am
   6    3   83 1
   7    4   84 1
   8    4   85 1
   9    5    6 2
  10    5    8 1
  11    5   13 am
  12    7    8 1
  13    7   86 1
  14    8    9 1
  15    8   87 1
  16    9   10 1
  17    9   88 1
  18    9   89 1
  19   10   90 1
  20   11   12 2
  21   11   14 1
  22   11   20 am
  23   13   14 1
  24   13   91 1
  25   14   15 1
  26   14   92 1
  27   15   16 1
  28   15   17 1
  29   15   93 1
  30   16   94 1
  31   16   95 1
  32   16   96 1
  33   17   97 1
  34   18   19 2
  35   18   21 1
  36   18   28 am
  37   20   21 1
  38   20   98 1
  39   21   22 1
  40   21   99 1
  41   22   23 1
  42   22  100 1
  43   22  101 1
  44   23   24 2
  45   23   25 1
  46   25  102 1
  47   26   27 2
  48   26   29 1
  49   26   39 am
  50   28   29 1
  51   28  103 1
  52   29   30 1
  53   29  104 1
  54   30   31 1
  55   30  105 1
  56   30  106 1
  57   31   32 1
  58   31  107 1
  59   31  108 1
  60   32   33 1
  61   32  109 1
  62   32  110 1
  63   33   34 1
  64   33  111 1
  65   34   35 2
  66   34   36 1
  67   35  112 1
  68   36  113 1
  69   36  114 1
  70   37   38 2
  71   37   40 1
  72   37   47 am
  73   39   40 1
  74   39  115 1
  75   40   41 1
  76   40  116 1
  77   41   42 1
  78   41  117 1
  79   41  118 1
  80   42   43 1
  81   42   44 1
  82   42  119 1
  83   43  120 1
  84   43  121 1
  85   43  122 1
  86   44  123 1
  87   44  124 1
  88   44  125 1
  89   45   46 2
  90   45   48 1
  91   45   58 am
  92   47   48 1
  93   47  126 1
  94   48   49 1
  95   48  127 1
  96   49   50 1
  97   49  128 1
  98   49  129 1
  99   50   51 1
 100   50  130 1
 101   50  131 1
 102   51   52 1
 103   51  132 1
 104   51  133 1
 105   52   53 1
 106   52  134 1
 107   53   54 2
 108   53   55 1
 109   54  135 1
 110   55  136 1
 111   55  137 1
 112   56   57 2
 113   56   59 1
 114   56   65 1
 115   58   59 1
 116   58  138 1
 117   59   60 1
 118   59  139 1
 119   60   61 1
 120   60  140 1
 121   60  141 1
 122   61   62 1
 123   61  142 1
 124   61  143 1
 125   62   63 1
 126   62  144 1
 127   62  145 1
 128   63   64 1
 129   63  146 1
 130   63  147 1
 131   64  148 1
 132   64  149 1
 133   65  150 1
 134   66   67 2
 135   66   82 1
 136   68   69 1
 137   68  151 1
 138   68  152 1
 139   68  153 1
 140   69   70 1
 141   69  154 1
 142   69  155 1
 143   70   71 1
 144   70  156 1
 145   70  157 1
 146   71   72 1
 147   71  158 1
 148   71  159 1
 149   72   73 1
 150   72  160 1
 151   72  161 1
 152   73   74 1
 153   73  162 1
 154   73  163 1
 155   74   75 1
 156   74  164 1
 157   74  165 1
 158   75   76 1
 159   75  166 1
 160   75  167 1
 161   76   77 1
 162   76  168 1
 163   76  169 1
 164   77   78 1
 165   77  170 1
 166   77  171 1
 167   78   79 1
 168   78  172 1
 169   78  173 1
 170   79   80 1
 171   79  174 1
 172   79  175 1
 173   80   81 1
 174   80  176 1
 175   80  177 1
 176   81   82 1
 177   81  178 1
 178   81  179 1
 179   82  180 1
 180   82  181 1

#	End of record

