#	Name: ASD02900008
#	Creating user name:	WinNT
#	Creation time:	15. 06. 2019 20:26

#	Modifying user name:	WinNT
#	Modification time:	15. 06. 2019 20:26

#	Program:	/corina/corina34_cracker 3.40 0067  02.08.2006

@<TRIPOS>MOLECULE
ASD02900008
  33   33    0    0    0
SMALL
NO_CHARGES


@<TRIPOS>ATOM
   1 C1            -0.0167     1.3831     0.0096 C.ar    
   2 C2             0.0021    -0.0041     0.0020 C.ar    
   3 C3             1.2141    -0.6789    -0.0132 C.ar    
   4 C4             2.3989     0.0314    -0.0207 C.ar    
   5 C5             2.3774     1.4139    -0.0126 C.ar    
   6 C6             1.1708     2.0889     0.0021 C.ar    
   7 O7            -1.1648    -0.7006     0.0099 O.3     
   8 S8             3.8903     2.3170    -0.0210 S.o2    
   9 O9             4.8803     1.4466     0.5096 O.2     
  10 N10            4.2970     2.5773    -1.6051 N.am    
  11 C11            3.4464     3.4182    -2.4511 C.3     
  12 C12            4.2101     3.8026    -3.7199 C.3     
  13 O13            4.4704     2.6294    -4.4931 O.3     
  14 P14            5.2580     2.6613    -5.8969 P.3     
  15 O15            4.5894     3.6091    -6.8162 O.2     
  16 O16            6.7768     3.1346    -5.6495 O.3     
  17 O17            5.2540     1.1888    -6.5481 O.3     
  18 O18            3.5993     3.5927     0.5333 O.2     
  19 C19           -1.0693    -2.1264     0.0013 C.3     
  20 F20           -0.3688    -2.5537     1.1344 F       
  21 F21           -2.3541    -2.6799     0.0111 F       
  22 F22           -0.3915    -2.5415    -1.1500 F       
  23 H23           -0.9590     1.9108     0.0170 H       
  24 H24            1.2314    -1.7588    -0.0188 H       
  25 H25            3.3426    -0.4935    -0.0325 H       
  26 H26            1.1567     3.1688     0.0084 H       
  27 H27            5.0984     2.1731    -1.9728 H       
  28 H28            2.5457     2.8674    -2.7219 H       
  29 H29            3.1703     4.3206    -1.9057 H       
  30 H30            3.6117     4.4993    -4.3070 H       
  31 H31            5.1538     4.2747    -3.4470 H       
  32 H32            7.2765     2.5584    -5.0551 H       
  33 H33            5.7122     1.1333    -7.3978 H       
@<TRIPOS>BOND
   1    1    2 ar
   2    1    6 ar
   3    1   23 1
   4    2    3 ar
   5    2    7 1
   6    3    4 ar
   7    3   24 1
   8    4    5 ar
   9    4   25 1
  10    5    6 ar
  11    5    8 1
  12    6   26 1
  13    7   19 1
  14    8    9 2
  15    8   10 am
  16    8   18 2
  17   10   11 1
  18   10   27 1
  19   11   12 1
  20   11   28 1
  21   11   29 1
  22   12   13 1
  23   12   30 1
  24   12   31 1
  25   13   14 1
  26   14   15 2
  27   14   16 1
  28   14   17 1
  29   16   32 1
  30   17   33 1
  31   19   20 1
  32   19   21 1
  33   19   22 1

#	End of record

