#	Name: ASD00170206
#	Creating user name:	WinNT
#	Creation time:	15. 06. 2019 18:31

#	Modifying user name:	WinNT
#	Modification time:	15. 06. 2019 18:31

#	Program:	/corina/corina34_cracker 3.40 0067  02.08.2006

@<TRIPOS>MOLECULE
ASD00170206
  51   54    0    0    0
SMALL
NO_CHARGES


@<TRIPOS>ATOM
   1 C1             0.0017     1.3504    -0.0668 C.2     
   2 C2             0.0224     0.0154     0.2017 C.2     
   3 C3            -1.3109    -0.5539     0.2775 C.2     
   4 C4            -2.3018     0.3745     0.0625 C.2     
   5 S5            -1.6496     1.9218    -0.2215 S.3     
   6 C6             1.2639    -0.7667     0.3941 C.ar    
   7 C7             2.0753    -0.5311     1.5044 C.ar    
   8 C8             3.2316    -1.2638     1.6780 C.ar    
   9 C9             3.5872    -2.2298     0.7539 C.ar    
  10 C10            2.7868    -2.4682    -0.3495 C.ar    
  11 C11            1.6251    -1.7469    -0.5313 C.ar    
  12 N12           -3.6499     0.0905     0.0798 N.pl3   
  13 C13           -1.5723    -1.9654     0.5528 C.2     
  14 C14           -1.6324    -2.4478     1.9501 C.ar    
  15 O15           -1.7405    -2.7444    -0.3680 O.2     
  16 C16           -1.7703    -3.8110     2.2156 C.ar    
  17 C17           -1.8257    -4.2542     3.5209 C.ar    
  18 C18           -1.7449    -3.3506     4.5655 C.ar    
  19 C19           -1.6081    -1.9978     4.3091 C.ar    
  20 C20           -1.5456    -1.5421     3.0085 C.ar    
  21 C21            1.2012     2.1992    -0.2026 C.ar    
  22 C22            2.2639     1.7839    -1.0032 C.ar    
  23 C23            3.3945     2.5937    -1.1254 C.ar    
  24 C24            3.4524     3.8146    -0.4442 C.ar    
  25 C25            2.3955     4.2180     0.3470 C.ar    
  26 C26            1.2719     3.4249     0.4673 C.ar    
  27 C27            4.5224     2.1642    -1.9680 C.2     
  28 C28            5.7418     3.0401    -2.0983 C.3     
  29 O29            4.4705     1.1057    -2.5571 O.2     
  30 C30            4.1092    -1.0107     2.8767 C.3     
  31 F31            3.7059    -1.8353     3.9324 F       
  32 F32            5.4398    -1.2912     2.5480 F       
  33 F33            3.9967     0.3294     3.2625 F       
  34 H34            1.7991     0.2232     2.2263 H       
  35 H35            4.4936    -2.8000     0.8939 H       
  36 H36            3.0699    -3.2238    -1.0674 H       
  37 H37            1.0010    -1.9342    -1.3926 H       
  38 H38           -3.9555    -0.7971     0.3241 H       
  39 H39           -4.2934     0.7781    -0.1524 H       
  40 H40           -1.8338    -4.5173     1.4011 H       
  41 H41           -1.9327    -5.3088     3.7277 H       
  42 H42           -1.7892    -3.7026     5.5856 H       
  43 H43           -1.5460    -1.2975     5.1290 H       
  44 H44           -1.4385    -0.4859     2.8096 H       
  45 H45            2.2131     0.8402    -1.5261 H       
  46 H46            4.3261     4.4426    -0.5374 H       
  47 H47            2.4461     5.1610     0.8710 H       
  48 H48            0.4491     3.7474     1.0882 H       
  49 H49            6.4605     2.7803    -1.3211 H       
  50 H50            6.1952     2.8882    -3.0779 H       
  51 H51            5.4517     4.0852    -1.9903 H       
@<TRIPOS>BOND
   1    1    2 2
   2    1   21 1
   3    1    5 1
   4    2    3 1
   5    2    6 1
   6    3    4 2
   7    3   13 1
   8    4    5 1
   9    4   12 1
  10    6    7 ar
  11    6   11 ar
  12    7    8 ar
  13    7   34 1
  14    8    9 ar
  15    8   30 1
  16    9   10 ar
  17    9   35 1
  18   10   11 ar
  19   10   36 1
  20   11   37 1
  21   12   38 1
  22   12   39 1
  23   13   14 1
  24   13   15 2
  25   14   16 ar
  26   14   20 ar
  27   16   17 ar
  28   16   40 1
  29   17   18 ar
  30   17   41 1
  31   18   19 ar
  32   18   42 1
  33   19   20 ar
  34   19   43 1
  35   20   44 1
  36   21   22 ar
  37   21   26 ar
  38   22   23 ar
  39   22   45 1
  40   23   24 ar
  41   23   27 1
  42   24   25 ar
  43   24   46 1
  44   25   26 ar
  45   25   47 1
  46   26   48 1
  47   27   28 1
  48   27   29 2
  49   28   49 1
  50   28   50 1
  51   28   51 1
  52   30   31 1
  53   30   32 1
  54   30   33 1

#	End of record

