#	Name: ASD01884126
#	Creating user name:	WinNT
#	Creation time:	15. 06. 2019 19:47

#	Modifying user name:	WinNT
#	Modification time:	15. 06. 2019 19:47

#	Program:	/corina/corina34_cracker 3.40 0067  02.08.2006

@<TRIPOS>MOLECULE
ASD01884126
  48   51    0    0    0
SMALL
NO_CHARGES


@<TRIPOS>ATOM
   1 C1            -0.8460    -0.1816    -0.9932 C.2     
   2 C2            -0.0271    -0.0493     0.0952 C.2     
   3 C3            -0.3893     0.8327     1.1366 C.2     
   4 C4            -1.5337     1.5397     1.0608 C.2     
   5 N5            -2.3573     1.4147    -0.0198 N.pl3   
   6 C6            -2.0315     0.5706    -1.0536 C.2     
   7 N7            -3.0075     0.6609    -1.9441 N.2     
   8 C8            -3.5474     1.9843    -0.3659 C.2     
   9 N9            -3.8949     1.4936    -1.5264 N.2     
  10 C10           -4.3214     2.9928     0.4432 C.3     
  11 N11            1.1547    -0.7797     0.1753 N.pl3   
  12 C12            1.1234    -2.2439     0.2921 C.3     
  13 C13            1.9523    -2.6591     1.5116 C.3     
  14 C14            3.3589    -2.0681     1.3925 C.3     
  15 C15            3.2716    -0.5404     1.3653 C.3     
  16 C16            2.4577    -0.1016     0.1384 C.3     
  17 C17            4.1878    -2.5025     2.5738 C.ar    
  18 C18            5.3433    -3.2349     2.3754 C.ar    
  19 C19            6.1035    -3.6334     3.4590 C.ar    
  20 C20            5.7085    -3.2993     4.7408 C.ar    
  21 C21            4.5534    -2.5662     4.9391 C.ar    
  22 C22            3.7955    -2.1639     3.8553 C.ar    
  23 C23           -3.8785     4.4053     0.0564 C.3     
  24 C24           -0.4781    -1.1175    -2.1156 C.3     
  25 F25           -0.9355    -2.4056    -1.8176 F       
  26 F26           -1.0698    -0.6758    -3.3039 F       
  27 F27            0.9125    -1.1399    -2.2673 F       
  28 H28            0.2535     0.9408     1.9978 H       
  29 H29           -1.8018     2.2114     1.8629 H       
  30 H30           -5.3868     2.8785     0.2432 H       
  31 H31           -4.1315     2.8302     1.5042 H       
  32 H32            0.0938    -2.5784     0.4191 H       
  33 H33            1.5469    -2.6914    -0.6071 H       
  34 H34            1.4767    -2.2864     2.4188 H       
  35 H35            2.0170    -3.7464     1.5545 H       
  36 H36            3.8247    -2.4216     0.4727 H       
  37 H37            2.7835    -0.1876     2.2738 H       
  38 H38            4.2752    -0.1196     1.3040 H       
  39 H39            2.9921    -0.3748    -0.7714 H       
  40 H40            2.3075     0.9776     0.1664 H       
  41 H41            5.6519    -3.4959     1.3739 H       
  42 H42            7.0059    -4.2062     3.3040 H       
  43 H43            6.3021    -3.6113     5.5874 H       
  44 H44            4.2446    -2.3054     5.9406 H       
  45 H45            2.8931    -1.5911     4.0102 H       
  46 H46           -2.8132     4.5196     0.2565 H       
  47 H47           -4.0685     4.5678    -1.0045 H       
  48 H48           -4.4384     5.1347     0.6417 H       
@<TRIPOS>BOND
   1    1    2 2
   2    1   24 1
   3    1    6 1
   4    2    3 1
   5    2   11 1
   6    3    4 2
   7    3   28 1
   8    4    5 1
   9    4   29 1
  10    5    6 1
  11    5    8 1
  12    6    7 2
  13    7    9 1
  14    8    9 2
  15    8   10 1
  16   10   23 1
  17   10   30 1
  18   10   31 1
  19   11   12 1
  20   11   16 1
  21   12   13 1
  22   12   32 1
  23   12   33 1
  24   13   14 1
  25   13   34 1
  26   13   35 1
  27   14   15 1
  28   14   17 1
  29   14   36 1
  30   15   16 1
  31   15   37 1
  32   15   38 1
  33   16   39 1
  34   16   40 1
  35   17   18 ar
  36   17   22 ar
  37   18   19 ar
  38   18   41 1
  39   19   20 ar
  40   19   42 1
  41   20   21 ar
  42   20   43 1
  43   21   22 ar
  44   21   44 1
  45   22   45 1
  46   23   46 1
  47   23   47 1
  48   23   48 1
  49   24   25 1
  50   24   26 1
  51   24   27 1

#	End of record

