#	Name: ASD06710001
#	Creating user name:	WinNT
#	Creation time:	15. 06. 2019 21:08

#	Modifying user name:	WinNT
#	Modification time:	15. 06. 2019 21:08

#	Program:	/corina/corina34_cracker 3.40 0067  02.08.2006

@<TRIPOS>MOLECULE
ASD06710001
  54   55    0    0    0
SMALL
NO_CHARGES


@<TRIPOS>ATOM
   1 C1            -0.0184     1.5028     0.0103 C.3     
   2 C2             0.0295     0.0147     0.2433 C.ar    
   3 C3             1.3755     2.0165    -0.2434 C.ar    
   4 C4            -0.9006     1.8008    -1.2037 C.3     
   5 C5            -0.5998     2.1939     1.2453 C.3     
   6 C6            -0.5094    -0.5207     1.3986 C.ar    
   7 C7            -0.4668    -1.8845     1.6145 C.ar    
   8 C8             0.1172    -2.7171     0.6710 C.ar    
   9 C9             0.6572    -2.1775    -0.4874 C.ar    
  10 C10            0.6070    -0.8136    -0.7013 C.ar    
  11 C11            1.6485     2.7315    -1.3949 C.ar    
  12 C12            2.9254     3.2036    -1.6297 C.ar    
  13 C13            3.9341     2.9597    -0.7090 C.ar    
  14 C14            3.6575     2.2421     0.4456 C.ar    
  15 C15            2.3777     1.7770     0.6785 C.ar    
  16 O16            0.1608    -4.0590     0.8813 O.3     
  17 C17            0.7772    -4.8550    -0.1329 C.3     
  18 C18            0.7320    -6.3283     0.2774 C.3     
  19 C19            1.2784    -7.1917    -0.8614 C.3     
  20 O20            1.5299    -6.5218     1.4470 O.3     
  21 O21            1.1289    -8.5727    -0.5260 O.3     
  22 O22            5.1911     3.4226    -0.9380 O.3     
  23 C23            6.1793     3.1341     0.0531 C.3     
  24 C24            7.5212     3.7310    -0.3757 C.3     
  25 C25            8.5484     3.5309     0.7404 C.3     
  26 O26            7.9751     3.0785    -1.5633 O.3     
  27 Cl27          10.0863     4.3615     0.2979 Cl      
  28 H28           -1.9087     1.4292    -1.0202 H       
  29 H29           -0.9352     2.8772    -1.3722 H       
  30 H30           -0.4864     1.3085    -2.0835 H       
  31 H31            0.0287     1.9816     2.1101 H       
  32 H32           -0.6344     3.2703     1.0768 H       
  33 H33           -1.6079     1.8223     1.4288 H       
  34 H34           -0.9636     0.1279     2.1330 H       
  35 H35           -0.8875    -2.3021     2.5173 H       
  36 H36            1.1124    -2.8235    -1.2235 H       
  37 H37            1.0272    -0.3930    -1.6029 H       
  38 H38            0.8630     2.9208    -2.1115 H       
  39 H39            3.1383     3.7617    -2.5295 H       
  40 H40            4.4411     2.0509     1.1639 H       
  41 H41            2.1619     1.2183     1.5772 H       
  42 H42            0.2424    -4.7231    -1.0734 H       
  43 H43            1.8145    -4.5444    -0.2581 H       
  44 H44           -0.2981    -6.6151     0.4887 H       
  45 H45            0.7261    -6.9782    -1.7765 H       
  46 H46            2.3341    -6.9670    -1.0134 H       
  47 H47            2.4606    -6.2862     1.3315 H       
  48 H48            1.4551    -9.1798    -1.2044 H       
  49 H49            5.8762     3.5686     1.0057 H       
  50 H50            6.2802     2.0542     0.1620 H       
  51 H51            7.3993     4.7965    -0.5706 H       
  52 H52            8.1625     3.9516     1.6690 H       
  53 H53            8.7363     2.4657     0.8746 H       
  54 H54            8.1056     2.1256    -1.4631 H       
@<TRIPOS>BOND
   1    1    2 1
   2    1    3 1
   3    1    4 1
   4    1    5 1
   5    2    6 ar
   6    2   10 ar
   7    3   11 ar
   8    3   15 ar
   9    4   28 1
  10    4   29 1
  11    4   30 1
  12    5   31 1
  13    5   32 1
  14    5   33 1
  15    6    7 ar
  16    6   34 1
  17    7    8 ar
  18    7   35 1
  19    8    9 ar
  20    8   16 1
  21    9   10 ar
  22    9   36 1
  23   10   37 1
  24   11   12 ar
  25   11   38 1
  26   12   13 ar
  27   12   39 1
  28   13   14 ar
  29   13   22 1
  30   14   15 ar
  31   14   40 1
  32   15   41 1
  33   16   17 1
  34   17   18 1
  35   17   42 1
  36   17   43 1
  37   18   19 1
  38   18   20 1
  39   18   44 1
  40   19   21 1
  41   19   45 1
  42   19   46 1
  43   20   47 1
  44   21   48 1
  45   22   23 1
  46   23   24 1
  47   23   49 1
  48   23   50 1
  49   24   25 1
  50   24   26 1
  51   24   51 1
  52   25   27 1
  53   25   52 1
  54   25   53 1
  55   26   54 1

#	End of record

