#	Name: ASD02448130
#	Creating user name:	WinNT
#	Creation time:	15. 06. 2019 20:21

#	Modifying user name:	WinNT
#	Modification time:	15. 06. 2019 20:21

#	Program:	/corina/corina34_cracker 3.40 0067  02.08.2006

@<TRIPOS>MOLECULE
ASD02448130
  81   86    0    0    0
SMALL
NO_CHARGES


@<TRIPOS>ATOM
   1 C1            -0.0495    -6.5829     3.1351 C.ar    
   2 C2             0.4370    -5.4514     2.5095 C.ar    
   3 C3             0.3489    -5.3268     1.1289 C.ar    
   4 C4            -0.2282    -6.3397     0.3779 C.ar    
   5 C5            -0.7163    -7.4757     1.0090 C.ar    
   6 C6            -0.6252    -7.5942     2.3903 C.ar    
   7 N7            -1.2987    -8.4981     0.2563 N.am    
   8 C8            -1.4107    -9.9213     0.6012 C.3     
   9 C9            -2.1062   -10.6886    -0.4765 C.2     
  10 N10           -2.4889    -9.9547    -1.5309 N.am    
  11 S11           -2.0330    -8.3809    -1.2372 S.o2    
  12 O12           -2.3081   -11.8823    -0.4030 O.2     
  13 O13           -3.2237    -7.6239    -1.0688 O.2     
  14 O14           -1.0137    -8.0580    -2.1732 O.2     
  15 N15            0.8426    -4.1777     0.4952 N.pl3   
  16 C16            1.7739    -4.1404    -0.5081 C.2     
  17 C17            0.4816    -2.8942     0.7584 C.2     
  18 N18            1.1499    -2.0984    -0.0289 N.2     
  19 C19            1.9563    -2.8316    -0.8232 C.2     
  20 C20            2.8793    -2.3027    -1.8572 C.ar    
  21 C21            2.9684    -0.9284    -2.0788 C.ar    
  22 C22            3.6642    -3.1765    -2.6065 C.ar    
  23 C23            4.5214    -2.6795    -3.5675 C.ar    
  24 C24            4.6028    -1.3154    -3.7876 C.ar    
  25 C25            3.8292    -0.4417    -3.0426 C.ar    
  26 C26           -0.5265    -2.4615     1.7916 C.3     
  27 C27           -1.8704    -2.2762     1.1353 C.ar    
  28 C28           -2.7139    -3.3606     0.9741 C.ar    
  29 C29           -2.2582    -1.0212     0.7017 C.ar    
  30 C30           -3.4882    -0.8454     0.1009 C.ar    
  31 C31           -4.3399    -1.9354    -0.0690 C.ar    
  32 C32           -3.9457    -3.1967     0.3738 C.ar    
  33 C33           -5.6631    -1.7528    -0.7140 C.ar    
  34 C34           -6.5138    -2.8444    -0.8831 C.ar    
  35 C35           -6.0600    -0.4882    -1.1468 C.ar    
  36 C36           -7.2898    -0.3205    -1.7460 C.ar    
  37 C37           -8.1347    -1.4117    -1.9190 C.ar    
  38 C38           -7.7428    -2.6729    -1.4827 C.ar    
  39 Cl39           5.6835    -0.6974    -4.9975 Cl      
  40 Cl40           1.9988     0.1679    -1.1450 Cl      
  41 S41           -9.7067    -1.1946    -2.6847 S.3     
  42 C42          -10.4011    -2.8704    -2.6731 C.3     
  43 C43          -11.7897    -2.8516    -3.3153 C.3     
  44 C44          -12.3754    -4.2650    -3.3055 C.3     
  45 C45          -12.4877    -4.7604    -1.8623 C.3     
  46 C46          -13.7639    -4.2461    -3.9477 C.3     
  47 C47          -11.4603    -5.2018    -4.0966 C.3     
  48 H48            0.0243    -6.6792     4.2083 H       
  49 H49            0.8861    -4.6625     3.0946 H       
  50 H50           -0.2980    -6.2448    -0.6957 H       
  51 H51           -1.0047    -8.4777     2.8822 H       
  52 H52           -0.4119   -10.3334     0.7452 H       
  53 H53           -1.9730   -10.0204     1.5297 H       
  54 H54           -2.9500   -10.2806    -2.3196 H       
  55 H55            2.2678    -4.9874    -0.9610 H       
  56 H56            3.6023    -4.2410    -2.4354 H       
  57 H57            5.1301    -3.3564    -4.1486 H       
  58 H58            3.8961     0.6218    -3.2184 H       
  59 H59           -0.6027    -3.2242     2.5666 H       
  60 H60           -0.2075    -1.5199     2.2385 H       
  61 H61           -2.4077    -4.3374     1.3183 H       
  62 H62           -1.5974    -0.1772     0.8339 H       
  63 H63           -3.7902     0.1350    -0.2367 H       
  64 H64           -4.6018    -4.0449     0.2447 H       
  65 H65           -6.2097    -3.8240    -0.5447 H       
  66 H66           -5.4043     0.3594    -1.0124 H       
  67 H67           -7.5977     0.6590    -2.0811 H       
  68 H68           -8.4002    -3.5190    -1.6178 H       
  69 H69           -9.7492    -3.5378    -3.2367 H       
  70 H70          -10.4811    -3.2234    -1.6449 H       
  71 H71          -12.4416    -2.1842    -2.7517 H       
  72 H72          -11.7097    -2.4986    -4.3435 H       
  73 H73          -13.1396    -4.0930    -1.2987 H       
  74 H74          -12.9050    -5.7674    -1.8553 H       
  75 H75          -11.4985    -4.7739    -1.4047 H       
  76 H76          -13.6839    -3.8931    -4.9759 H       
  77 H77          -14.1812    -5.2531    -3.9407 H       
  78 H78          -14.4159    -3.5787    -3.3841 H       
  79 H79          -10.4710    -5.2152    -3.6390 H       
  80 H80          -11.8775    -6.2087    -4.0895 H       
  81 H81          -11.3803    -4.8488    -5.1247 H       
@<TRIPOS>BOND
   1    1    2 ar
   2    1    6 ar
   3    1   48 1
   4    2    3 ar
   5    2   49 1
   6    3    4 ar
   7    3   15 1
   8    4    5 ar
   9    4   50 1
  10    5    6 ar
  11    5    7 1
  12    6   51 1
  13    7    8 1
  14    7   11 am
  15    8    9 1
  16    8   52 1
  17    8   53 1
  18    9   10 am
  19    9   12 2
  20   10   11 am
  21   10   54 1
  22   11   13 2
  23   11   14 2
  24   15   16 1
  25   15   17 1
  26   16   19 2
  27   16   55 1
  28   17   18 2
  29   17   26 1
  30   18   19 1
  31   19   20 1
  32   20   21 ar
  33   20   22 ar
  34   21   40 1
  35   21   25 ar
  36   22   23 ar
  37   22   56 1
  38   23   24 ar
  39   23   57 1
  40   24   25 ar
  41   24   39 1
  42   25   58 1
  43   26   27 1
  44   26   59 1
  45   26   60 1
  46   27   28 ar
  47   27   29 ar
  48   28   32 ar
  49   28   61 1
  50   29   30 ar
  51   29   62 1
  52   30   31 ar
  53   30   63 1
  54   31   32 ar
  55   31   33 1
  56   32   64 1
  57   33   34 ar
  58   33   35 ar
  59   34   38 ar
  60   34   65 1
  61   35   36 ar
  62   35   66 1
  63   36   37 ar
  64   36   67 1
  65   37   38 ar
  66   37   41 1
  67   38   68 1
  68   41   42 1
  69   42   43 1
  70   42   69 1
  71   42   70 1
  72   43   44 1
  73   43   71 1
  74   43   72 1
  75   44   45 1
  76   44   46 1
  77   44   47 1
  78   45   73 1
  79   45   74 1
  80   45   75 1
  81   46   76 1
  82   46   77 1
  83   46   78 1
  84   47   79 1
  85   47   80 1
  86   47   81 1

#	End of record

