#	Name: ASD03091292
#	Creating user name:	WinNT
#	Creation time:	15. 06. 2019 20:30

#	Modifying user name:	WinNT
#	Modification time:	15. 06. 2019 20:30

#	Program:	/corina/corina34_cracker 3.40 0067  02.08.2006

@<TRIPOS>MOLECULE
ASD03091292
  52   56    0    0    0
SMALL
NO_CHARGES


@<TRIPOS>ATOM
   1 N1             0.0504     1.1899     0.0784 N.2     
   2 C2             0.0564    -0.1068     0.0226 C.2     
   3 N3             1.1950    -0.8478    -0.0310 N.am    
   4 C4             2.4080    -0.2474    -0.0284 C.2     
   5 C5             2.4361     1.2215     0.0341 C.ar    
   6 C6             3.6320     1.9356     0.0424 C.ar    
   7 C7             3.5956     3.3184     0.1028 C.ar    
   8 C8             2.3746     3.9905     0.1550 C.ar    
   9 C9             1.1948     3.3028     0.1481 C.ar    
  10 C10            1.2024     1.9075     0.0872 C.ar    
  11 O11            3.4358    -0.8981    -0.0756 O.2     
  12 C12            1.1082    -2.3089    -0.0916 C.3     
  13 C13            0.9102    -2.7483    -1.5437 C.3     
  14 O14            2.0689    -2.4064    -2.3070 O.3     
  15 C15           -1.2667    -0.8282     0.0175 C.3     
  16 C16           -2.4582    -0.1232     0.6689 C.3     
  17 C17           -2.3833    -0.2498    -0.8540 C.3     
  18 N18            7.5099     4.8227    -0.7627 N.3     
  19 C19            7.2570     3.8986     0.3534 C.3     
  20 C20            5.9510     3.1481     0.1441 C.3     
  21 N21            4.7895     4.0450     0.1121 N.3     
  22 C22            4.8649     4.9491    -1.0441 C.3     
  23 C23            5.5110     6.2676    -0.6458 C.3     
  24 C24            7.0071     6.1631    -0.4290 C.3     
  25 C25            7.0909     4.3739    -2.0732 C.3     
  26 C26            5.5805     4.2437    -2.1816 C.3     
  27 H27            4.5780     1.4160     0.0023 H       
  28 H28            2.3620     5.0694     0.2019 H       
  29 H29            0.2571     3.8371     0.1897 H       
  30 H30            2.0288    -2.7440     0.2974 H       
  31 H31            0.2640    -2.6480     0.5089 H       
  32 H32            0.7569    -3.8268    -1.5793 H       
  33 H33            0.0387    -2.2434    -1.9604 H       
  34 H34            2.0133    -2.6561    -3.2395 H       
  35 H35           -1.2112    -1.9128     0.1107 H       
  36 H36           -3.1867    -0.7441     1.1903 H       
  37 H37           -2.2850     0.8623     1.1012 H       
  38 H38           -2.1609     0.6525    -1.4237 H       
  39 H39           -3.0626    -0.9539    -1.3345 H       
  40 H40            8.0761     3.1824     0.4192 H       
  41 H41            7.2006     4.4651     1.2829 H       
  42 H42            6.0034     2.6046    -0.7993 H       
  43 H43            5.8216     2.4317     0.9554 H       
  44 H44            3.8478     5.1572    -1.3761 H       
  45 H45            5.3219     7.0004    -1.4302 H       
  46 H46            5.0480     6.6192     0.2762 H       
  47 H47            7.2311     6.3772     0.6160 H       
  48 H48            7.5099     6.8983    -1.0573 H       
  49 H49            7.4386     5.0884    -2.8193 H       
  50 H50            7.5448     3.4040    -2.2765 H       
  51 H51            5.3141     3.1869    -2.1667 H       
  52 H52            5.2547     4.6763    -3.1275 H       
@<TRIPOS>BOND
   1    1    2 2
   2    1   10 1
   3    2    3 1
   4    2   15 1
   5    3    4 am
   6    3   12 1
   7    4    5 1
   8    4   11 2
   9    5    6 ar
  10    5   10 ar
  11    6    7 ar
  12    6   27 1
  13    7    8 ar
  14    7   21 1
  15    8    9 ar
  16    8   28 1
  17    9   10 ar
  18    9   29 1
  19   12   13 1
  20   12   30 1
  21   12   31 1
  22   13   14 1
  23   13   32 1
  24   13   33 1
  25   14   34 1
  26   15   16 1
  27   15   17 1
  28   15   35 1
  29   16   17 1
  30   16   36 1
  31   16   37 1
  32   17   38 1
  33   17   39 1
  34   18   19 1
  35   18   24 1
  36   18   25 1
  37   19   20 1
  38   19   40 1
  39   19   41 1
  40   20   21 1
  41   20   42 1
  42   20   43 1
  43   21   22 1
  44   22   23 1
  45   22   26 1
  46   22   44 1
  47   23   24 1
  48   23   45 1
  49   23   46 1
  50   24   47 1
  51   24   48 1
  52   25   26 1
  53   25   49 1
  54   25   50 1
  55   26   51 1
  56   26   52 1

#	End of record

