#	Name: ASD01230704
#	Creating user name:	WinNT
#	Creation time:	15. 06. 2019 19:14

#	Modifying user name:	WinNT
#	Modification time:	15. 06. 2019 19:14

#	Program:	/corina/corina34_cracker 3.40 0067  02.08.2006

@<TRIPOS>MOLECULE
ASD01230704
  35   37    0    0    0
SMALL
NO_CHARGES


@<TRIPOS>ATOM
   1 S1            -0.0204     1.6504     0.0111 S.o2    
   2 N2             0.0021    -0.0041     0.0020 N.am    
   3 C3             1.0229    -0.6873    -0.4557 C.2     
   4 N4             2.1690    -0.1517    -0.9710 N.pl3   
   5 C5             2.3936     1.2855    -1.1469 C.3     
   6 C6             1.7501     2.0749    -0.0035 C.3     
   7 C7             0.8951    -2.1589    -0.3951 C.2     
   8 C8             1.9455    -2.9418    -0.8228 C.2     
   9 C9             3.1042    -2.3188    -1.3057 C.2     
  10 C10            3.1910    -0.9786    -1.3645 C.2     
  11 C11           -0.3451    -2.7835     0.1188 C.ar    
  12 C12           -0.3157    -3.5358     1.2933 C.ar    
  13 C13           -1.4748    -4.1149     1.7673 C.ar    
  14 C14           -2.6645    -3.9508     1.0805 C.ar    
  15 C15           -2.7001    -3.2062    -0.0851 C.ar    
  16 C16           -1.5489    -2.6173    -0.5664 C.ar    
  17 S17           -4.1807    -4.7138     1.7091 Du      
  18 F18           -5.5294    -5.3925     2.2682 F       
  19 F19           -4.9827    -3.3446     1.4366 F       
  20 F20           -4.5414    -5.2205     0.2241 F       
  21 F21           -3.8200    -4.2070     3.1941 F       
  22 F22           -3.3787    -6.0830     1.9815 F       
  23 O23           -0.6346     2.0064    -1.2198 O.2     
  24 O24           -0.6110     1.9931     1.2573 O.2     
  25 H25            3.4656     1.4827    -1.1611 H       
  26 H26            1.9576     1.6042    -2.0937 H       
  27 H27            1.8743     3.1443    -0.1744 H       
  28 H28            2.2074     1.7938     0.9452 H       
  29 H29            1.8769    -4.0190    -0.7861 H       
  30 H30            3.9375    -2.9225    -1.6337 H       
  31 H31            4.1021    -0.5345    -1.7374 H       
  32 H32            0.6125    -3.6649     1.8302 H       
  33 H33           -1.4533    -4.6978     2.6763 H       
  34 H34           -3.6318    -3.0824    -0.6172 H       
  35 H35           -1.5788    -2.0327    -1.4739 H       
@<TRIPOS>BOND
   1    1    2 am
   2    1    6 1
   3    1   23 2
   4    1   24 2
   5    2    3 2
   6    3    4 1
   7    3    7 1
   8    4    5 1
   9    4   10 1
  10    5    6 1
  11    5   25 1
  12    5   26 1
  13    6   27 1
  14    6   28 1
  15    7    8 2
  16    7   11 1
  17    8    9 1
  18    8   29 1
  19    9   10 2
  20    9   30 1
  21   10   31 1
  22   11   12 ar
  23   11   16 ar
  24   12   13 ar
  25   12   32 1
  26   13   14 ar
  27   13   33 1
  28   14   15 ar
  29   14   17 1
  30   15   16 ar
  31   15   34 1
  32   16   35 1
  33   17   18 1
  34   17   19 1
  35   17   20 1
  36   17   21 1
  37   17   22 1

#	End of record

