#	Name: ASD00990053
#	Creating user name:	WinNT
#	Creation time:	15. 06. 2019 18:54

#	Modifying user name:	WinNT
#	Modification time:	15. 06. 2019 18:54

#	Program:	/corina/corina34_cracker 3.40 0067  02.08.2006

@<TRIPOS>MOLECULE
ASD00990053
  30   29    0    0    0
SMALL
NO_CHARGES


@<TRIPOS>ATOM
   1 C1            -0.0170     1.4006     0.0097 C.ar    
   2 C2             0.0021    -0.0041     0.0020 C.ar    
   3 C3            -1.1910    -0.7135     0.0103 C.ar    
   4 C4            -2.3914    -0.0366     0.0260 C.ar    
   5 C5            -2.4162     1.3521     0.0333 C.ar    
   6 C6            -1.2426     2.0721     0.0301 C.ar    
   7 N7             1.2763     1.8141    -0.0004 N.2     
   8 C8             2.0661     0.7802    -0.0135 C.2     
   9 N9             1.3348    -0.3667    -0.0127 N.pl3   
  10 C10            3.5717     0.8440    -0.0280 C.3     
  11 N11            4.0422     0.9930    -1.4116 N.3     
  12 C12            5.5087     1.0589    -1.4647 C.3     
  13 Cl13          -3.9385     2.1864     0.0520 Cl      
  14 C14           -3.6858    -0.8084     0.0350 C.3     
  15 H15           -1.1787    -1.7934     0.0040 H       
  16 H16           -1.2690     3.1517     0.0358 H       
  17 H17            1.6843    -1.2715    -0.0209 H       
  18 H18            3.9049     1.6972     0.5630 H       
  19 H19            3.9783    -0.0735     0.3972 H       
  20 H20            3.6923     0.2477    -1.9947 H       
  21 H21            5.8554     1.9135    -0.8837 H       
  22 H22            5.9288     0.1428    -1.0495 H       
  23 H23            5.8302     1.1691    -2.5004 H       
  24 H24           -3.9874    -0.9999     1.0647 H       
  25 H25           -4.4587    -0.2273    -0.4679 H       
  26 H26           -3.5473    -1.7561    -0.4854 H       
  27 Cl27          10.9288     8.1517     6.0647 Cl      
  28 H28           10.9288     9.5217     6.0647 H       
  29 Cl29          15.9288    14.5217    11.0647 Cl      
  30 H30           15.9288    15.8917    11.0647 H       
@<TRIPOS>BOND
   1    1    2 ar
   2    1    7 1
   3    1    6 ar
   4    2    3 ar
   5    2    9 1
   6    3    4 ar
   7    3   15 1
   8    4    5 ar
   9    4   14 1
  10    5    6 ar
  11    5   13 1
  12    6   16 1
  13    7    8 2
  14    8    9 1
  15    8   10 1
  16    9   17 1
  17   10   11 1
  18   10   18 1
  19   10   19 1
  20   11   12 1
  21   11   20 1
  22   12   21 1
  23   12   22 1
  24   12   23 1
  25   14   24 1
  26   14   25 1
  27   14   26 1
  28   27   28 1
  29   29   30 1

#	End of record

