#	Name: ASD07931839
#	Creating user name:	WinNT
#	Creation time:	15. 06. 2019 21:13

#	Modifying user name:	WinNT
#	Modification time:	15. 06. 2019 21:13

#	Program:	/corina/corina34_cracker 3.40 0067  02.08.2006

@<TRIPOS>MOLECULE
ASD07931839
  25   25    0    0    0
SMALL
NO_CHARGES


@<TRIPOS>ATOM
   1 C1            -0.0188     1.5345     0.0105 C.3     
   2 C2             0.0021    -0.0041     0.0020 C.3     
   3 C3             1.4862    -0.4246    -0.0144 C.3     
   4 C4             2.2325     0.7924     0.5864 C.3     
   5 C5             1.4534     1.9953    -0.0011 C.3     
   6 O6            -0.6932     2.0213    -1.1515 O.3     
   7 N7            -0.6546    -0.5229     1.2093 N.3     
   8 C8            -1.1776    -1.8769     0.9835 C.3     
   9 C9            -1.8527    -2.3823     2.2601 C.3     
  10 O10           -2.9985    -1.5770     2.5439 O.3     
  11 H11           -0.5162     1.8962     0.9104 H       
  12 H12           -0.5022    -0.3794    -0.8884 H       
  13 H13            1.6390    -1.3091     0.6040 H       
  14 H14            1.8189    -0.6099    -1.0357 H       
  15 H15            2.1693     0.7856     1.6746 H       
  16 H16            3.2720     0.8083     0.2589 H       
  17 H17            1.7808     2.2008    -1.0203 H       
  18 H18            1.5822     2.8767     0.6270 H       
  19 H19           -0.7396     2.9858    -1.2042 H       
  20 H20           -0.0264    -0.5048     1.9987 H       
  21 H21           -1.9050    -1.8549     0.1721 H       
  22 H22           -0.3572    -2.5437     0.7180 H       
  23 H23           -2.1620    -3.4183     2.1219 H       
  24 H24           -1.1504    -2.3207     3.0914 H       
  25 H25           -3.4769    -1.8408     3.3417 H       
@<TRIPOS>BOND
   1    1    2 1
   2    1    5 1
   3    1    6 1
   4    1   11 1
   5    2    3 1
   6    2    7 1
   7    2   12 1
   8    3    4 1
   9    3   13 1
  10    3   14 1
  11    4    5 1
  12    4   15 1
  13    4   16 1
  14    5   17 1
  15    5   18 1
  16    6   19 1
  17    7    8 1
  18    7   20 1
  19    8    9 1
  20    8   21 1
  21    8   22 1
  22    9   10 1
  23    9   23 1
  24    9   24 1
  25   10   25 1

#	End of record

