#	Name: ASD01917908
#	Creating user name:	WinNT
#	Creation time:	15. 06. 2019 20:10

#	Modifying user name:	WinNT
#	Modification time:	15. 06. 2019 20:10

#	Program:	/corina/corina34_cracker 3.40 0067  02.08.2006

@<TRIPOS>MOLECULE
ASD01917908
  41   44    0    0    0
SMALL
NO_CHARGES


@<TRIPOS>ATOM
   1 C1             0.0061     1.2846    -0.0842 C.2     
   2 C2            -0.0028    -0.0615    -0.0767 C.2     
   3 C3            -1.2836    -0.8806    -0.0301 C.3     
   4 C4            -2.4258     0.0032     0.4767 C.3     
   5 N5            -2.3951     1.2873    -0.2397 N.am    
   6 C6            -1.2254     2.1597    -0.0361 C.3     
   7 C7            -3.4039     1.6536    -1.0549 C.2     
   8 O8            -4.3068     0.8760    -1.2913 O.2     
   9 S9             1.6740     1.8364    -0.1508 S.3     
  10 C10            2.2173     0.2158    -0.1583 C.2     
  11 N11            1.2136    -0.5880    -0.1156 N.2     
  12 C12            3.6621    -0.2097    -0.2081 C.3     
  13 O13            4.0694    -0.3541    -1.5702 O.3     
  14 C14            5.3546    -0.7358    -1.7927 C.ar    
  15 C15            5.8173    -0.8952    -3.0909 C.ar    
  16 C16            7.1241    -1.2834    -3.3144 C.ar    
  17 C17            7.9707    -1.5130    -2.2456 C.ar    
  18 C18            7.5119    -1.3552    -0.9509 C.ar    
  19 C19            6.2077    -0.9612    -0.7222 C.ar    
  20 C20           -3.4117     3.0074    -1.6641 C.2     
  21 N21           -4.2840     3.4657    -2.5901 N.2     
  22 C22           -3.9194     4.6989    -2.8367 C.2     
  23 O23           -2.8550     4.9552    -2.0695 O.3     
  24 N24           -2.5804     3.9807    -1.4016 N.2     
  25 C25           -4.5758     5.6502    -3.8037 C.3     
  26 H26           -1.5202    -1.2440    -1.0300 H       
  27 H27           -1.1507    -1.7265     0.6443 H       
  28 H28           -3.3789    -0.4931     0.2945 H       
  29 H29           -2.3037     0.1792     1.5454 H       
  30 H30           -1.2945     2.6514     0.9343 H       
  31 H31           -1.1783     2.9070    -0.8282 H       
  32 H32            4.2802     0.5451     0.2779 H       
  33 H33            3.7783    -1.1623     0.3088 H       
  34 H34            5.1562    -0.7164    -3.9260 H       
  35 H35            7.4846    -1.4080    -4.3248 H       
  36 H36            8.9920    -1.8164    -2.4224 H       
  37 H37            8.1750    -1.5358    -0.1177 H       
  38 H38            5.8498    -0.8381     0.2893 H       
  39 H39           -5.3543     6.2127    -3.2882 H       
  40 H40           -3.8296     6.3401    -4.1978 H       
  41 H41           -5.0183     5.0860    -4.6246 H       
@<TRIPOS>BOND
   1    1    2 2
   2    1    9 1
   3    1    6 1
   4    2    3 1
   5    2   11 1
   6    3    4 1
   7    3   26 1
   8    3   27 1
   9    4    5 1
  10    4   28 1
  11    4   29 1
  12    5    6 1
  13    5    7 am
  14    6   30 1
  15    6   31 1
  16    7    8 2
  17    7   20 1
  18    9   10 1
  19   10   11 2
  20   10   12 1
  21   12   13 1
  22   12   32 1
  23   12   33 1
  24   13   14 1
  25   14   15 ar
  26   14   19 ar
  27   15   16 ar
  28   15   34 1
  29   16   17 ar
  30   16   35 1
  31   17   18 ar
  32   17   36 1
  33   18   19 ar
  34   18   37 1
  35   19   38 1
  36   20   21 1
  37   20   24 2
  38   21   22 2
  39   22   23 1
  40   22   25 1
  41   23   24 1
  42   25   39 1
  43   25   40 1
  44   25   41 1

#	End of record

