#	Name: ASD01914959
#	Creating user name:	WinNT
#	Creation time:	15. 06. 2019 20:04

#	Modifying user name:	WinNT
#	Modification time:	15. 06. 2019 20:04

#	Program:	/corina/corina34_cracker 3.40 0067  02.08.2006

@<TRIPOS>MOLECULE
ASD01914959
  64   67    0    0    0
SMALL
NO_CHARGES


@<TRIPOS>ATOM
   1 C1             0.1599     1.6256     2.3262 C.2     
   2 N2            -0.0013     0.3349     2.1251 N.2     
   3 C3             1.3412     2.0224     1.6695 C.2     
   4 C4             1.8717     0.9308     1.0762 C.2     
   5 N5             1.0661    -0.1202     1.3406 N.pl3   
   6 C6            -0.7462     2.5083     3.1022 C.ar    
   7 C7            -1.8907     1.9827     3.6987 C.ar    
   8 C8            -2.7310     2.8054     4.4193 C.ar    
   9 C9            -2.4379     4.1559     4.5502 C.ar    
  10 C10           -1.2986     4.6824     3.9571 C.ar    
  11 C11           -0.4513     3.8632     3.2405 C.ar    
  12 C12            3.1393     0.8929     0.2621 C.3     
  13 C13            1.2727    -1.4974     0.8858 C.3     
  14 C14            2.0905    -2.2462     1.9064 C.2     
  15 N15            2.4068    -3.5398     1.6990 N.am    
  16 O16            2.4640    -1.6847     2.9145 O.2     
  17 C17            3.2043    -4.2998     2.6763 C.3     
  18 C18            2.3529    -5.4649     3.1844 C.3     
  19 N19            1.7112    -6.1579     2.0757 N.am    
  20 C20            1.4902    -5.6224     0.8743 C.2     
  21 C21            1.9645    -4.2513     0.4905 C.3     
  22 C22            3.2821     2.1998    -0.5204 C.3     
  23 C23            1.2972    -7.4778     2.2857 C.ar    
  24 C24            2.1546    -8.5294     1.9953 C.ar    
  25 O25           -3.2682     4.9643     5.2600 O.3     
  26 C26            1.7410    -9.8358     2.2052 C.ar    
  27 C27            0.4714   -10.0889     2.7049 C.ar    
  28 C28           -0.3813    -9.0402     2.9937 C.ar    
  29 C29            0.0291    -7.7370     2.7908 C.ar    
  30 O30            2.5782   -10.8679     1.9213 O.3     
  31 C31            2.0858   -12.1876     2.1621 C.3     
  32 O32            0.8749    -6.2722     0.0555 O.2     
  33 C33            4.3398     0.7233     1.1952 C.3     
  34 C34           -2.9063     6.3435     5.3545 C.3     
  35 H35            1.7499     3.0217     1.6443 H       
  36 H36           -2.1196     0.9322     3.5966 H       
  37 H37           -3.6182     2.3986     4.8818 H       
  38 H38           -1.0732     5.7335     4.0603 H       
  39 H39            0.4351     4.2733     2.7796 H       
  40 H40            3.0990     0.0551    -0.4341 H       
  41 H41            0.3073    -1.9882     0.7629 H       
  42 H42            1.8005    -1.4898    -0.0679 H       
  43 H43            4.1048    -4.6839     2.1970 H       
  44 H44            3.4780    -3.6532     3.5100 H       
  45 H45            2.9894    -6.1653     3.7251 H       
  46 H46            1.5874    -5.0822     3.8595 H       
  47 H47            1.1501    -3.7022     0.0179 H       
  48 H48            2.8012    -4.3353    -0.2031 H       
  49 H49            3.3224     3.0376     0.1757 H       
  50 H50            4.1990     2.1724    -1.1093 H       
  51 H51            2.4268     2.3206    -1.1852 H       
  52 H52            3.1422    -8.3305     1.6061 H       
  53 H53            0.1491   -11.1067     2.8681 H       
  54 H54           -1.3690    -9.2399     3.3822 H       
  55 H55           -0.6391    -6.9193     3.0173 H       
  56 H56            1.1947   -12.3588     1.5583 H       
  57 H57            2.8516   -12.9156     1.8941 H       
  58 H58            1.8358   -12.2952     3.2175 H       
  59 H59            5.2567     0.6958     0.6064 H       
  60 H60            4.3801     1.5611     1.8914 H       
  61 H61            4.2381    -0.2078     1.7527 H       
  62 H62           -3.6516     6.8750     5.9463 H       
  63 H63           -1.9314     6.4314     5.8340 H       
  64 H64           -2.8600     6.7763     4.3551 H       
@<TRIPOS>BOND
   1    1    2 2
   2    1    3 1
   3    1    6 1
   4    2    5 1
   5    3    4 2
   6    3   35 1
   7    4    5 1
   8    4   12 1
   9    5   13 1
  10    6    7 ar
  11    6   11 ar
  12    7    8 ar
  13    7   36 1
  14    8    9 ar
  15    8   37 1
  16    9   10 ar
  17    9   25 1
  18   10   11 ar
  19   10   38 1
  20   11   39 1
  21   12   22 1
  22   12   33 1
  23   12   40 1
  24   13   14 1
  25   13   41 1
  26   13   42 1
  27   14   15 am
  28   14   16 2
  29   15   17 1
  30   15   21 1
  31   17   18 1
  32   17   43 1
  33   17   44 1
  34   18   19 1
  35   18   45 1
  36   18   46 1
  37   19   20 am
  38   19   23 1
  39   20   21 1
  40   20   32 2
  41   21   47 1
  42   21   48 1
  43   22   49 1
  44   22   50 1
  45   22   51 1
  46   23   24 ar
  47   23   29 ar
  48   24   26 ar
  49   24   52 1
  50   25   34 1
  51   26   27 ar
  52   26   30 1
  53   27   28 ar
  54   27   53 1
  55   28   29 ar
  56   28   54 1
  57   29   55 1
  58   30   31 1
  59   31   56 1
  60   31   57 1
  61   31   58 1
  62   33   59 1
  63   33   60 1
  64   33   61 1
  65   34   62 1
  66   34   63 1
  67   34   64 1

#	End of record

