#	Name: ASD09720055
#	Creating user name:	WinNT
#	Creation time:	15. 06. 2019 21:22

#	Modifying user name:	WinNT
#	Modification time:	15. 06. 2019 21:22

#	Program:	/corina/corina34_cracker 3.40 0067  02.08.2006

@<TRIPOS>MOLECULE
ASD09720055
  49   50    0    0    0
SMALL
NO_CHARGES


@<TRIPOS>ATOM
   1 C1             0.1383     1.6332    -0.4111 C.ar    
   2 C2             0.5511     0.3333    -0.9746 C.2     
   3 N3             0.4761    -0.7378    -0.2527 N.2     
   4 C4             1.0599     0.2533    -2.3908 C.3     
   5 O5             0.1133    -0.6471     1.1131 O.3     
   6 S6             1.4831    -1.4660    -2.7851 S.3     
   7 C7             2.0488    -1.3630    -4.4506 C.ar    
   8 C8             2.4712    -2.5083    -5.1149 C.ar    
   9 C9             2.9139    -2.4237    -6.4201 C.ar    
  10 C10            2.9378    -1.2011    -7.0661 C.ar    
  11 C11            2.5186    -0.0591    -6.4081 C.ar    
  12 C12            2.0683    -0.1371    -5.1051 C.ar    
  13 C13            0.7802     2.8076    -0.8184 C.ar    
  14 C14            0.3992     4.0238    -0.2959 C.ar    
  15 C15           -0.6252     4.0935     0.6386 C.ar    
  16 C16           -1.2767     2.9217     1.0543 C.ar    
  17 C17           -0.8942     1.6915     0.5218 C.ar    
  18 C18            1.0971     5.2834    -0.7400 C.3     
  19 C19            2.2516     4.9234    -1.6773 C.3     
  20 C20            0.1039     6.1842    -1.4768 C.3     
  21 C21            1.6445     6.0215     0.4833 C.3     
  22 C22           -2.3650     2.9924     2.0465 C.2     
  23 O23           -2.6525     4.0563     2.5581 O.2     
  24 O24           -3.0406     1.8771     2.3860 O.3     
  25 O25           -0.9959     5.2930     1.1499 O.3     
  26 C26           -2.2159     5.8563     0.6639 C.3     
  27 H27            0.2869     0.6033    -3.0749 H       
  28 H28            1.9467     0.8786    -2.4941 H       
  29 H29            0.0841    -1.4990     1.5696 H       
  30 H30            2.4535    -3.4632    -4.6108 H       
  31 H31            3.2423    -3.3133    -6.9369 H       
  32 H32            3.2849    -1.1379    -8.0869 H       
  33 H33            2.5389     0.8940    -6.9156 H       
  34 H34            1.7411     0.7550    -4.5918 H       
  35 H35            1.5778     2.7605    -1.5450 H       
  36 H36           -1.3916     0.7861     0.8370 H       
  37 H37            1.8616     4.3976    -2.5488 H       
  38 H38            2.7564     5.8345    -1.9984 H       
  39 H39            2.9592     4.2817    -1.1523 H       
  40 H40           -0.6264     6.5755    -0.7685 H       
  41 H41            0.6395     7.0122    -1.9411 H       
  42 H42           -0.4092     5.6066    -2.2458 H       
  43 H43            2.3522     5.3797     1.0083 H       
  44 H44            2.1494     6.9326     0.1622 H       
  45 H45            0.8221     6.2779     1.1511 H       
  46 H46           -3.7457     1.9731     3.0408 H       
  47 H47           -2.2051     5.8609    -0.4261 H       
  48 H48           -3.0573     5.2598     1.0164 H       
  49 H49           -2.3158     6.8779     1.0305 H       
@<TRIPOS>BOND
   1    1    2 1
   2    1   13 ar
   3    1   17 ar
   4    2    3 2
   5    2    4 1
   6    3    5 1
   7    4    6 1
   8    4   27 1
   9    4   28 1
  10    5   29 1
  11    6    7 1
  12    7    8 ar
  13    7   12 ar
  14    8    9 ar
  15    8   30 1
  16    9   10 ar
  17    9   31 1
  18   10   11 ar
  19   10   32 1
  20   11   12 ar
  21   11   33 1
  22   12   34 1
  23   13   14 ar
  24   13   35 1
  25   14   15 ar
  26   14   18 1
  27   15   16 ar
  28   15   25 1
  29   16   17 ar
  30   16   22 1
  31   17   36 1
  32   18   19 1
  33   18   20 1
  34   18   21 1
  35   19   37 1
  36   19   38 1
  37   19   39 1
  38   20   40 1
  39   20   41 1
  40   20   42 1
  41   21   43 1
  42   21   44 1
  43   21   45 1
  44   22   23 2
  45   22   24 1
  46   24   46 1
  47   25   26 1
  48   26   47 1
  49   26   48 1
  50   26   49 1

#	End of record

