#	Name: ASD01813264
#	Creating user name:	WinNT
#	Creation time:	15. 06. 2019 19:30

#	Modifying user name:	WinNT
#	Modification time:	15. 06. 2019 19:30

#	Program:	/corina/corina34_cracker 3.40 0067  02.08.2006

@<TRIPOS>MOLECULE
ASD01813264
  51   54    0    0    0
SMALL
NO_CHARGES


@<TRIPOS>ATOM
   1 N1            -0.0162     1.3436     0.0094 N.am    
   2 C2             0.0021    -0.0041     0.0020 C.2     
   3 O3             1.0628    -0.5974    -0.0113 O.2     
   4 C4            -1.2681    -0.7606     0.0101 C.ar    
   5 C5            -2.4879    -0.0823     0.0195 C.ar    
   6 C6            -3.6696    -0.7943     0.0265 C.ar    
   7 C7            -3.6472    -2.1777     0.0247 C.ar    
   8 C8            -4.9419    -2.9489     0.0329 C.3     
   9 N9            -5.3712    -3.1971    -1.3456 N.pl3   
  10 C10           -6.2379    -2.4206    -2.0370 C.2     
  11 C11           -6.4201    -2.9331    -3.2887 C.2     
  12 C12           -7.2819    -2.3858    -4.3454 C.2     
  13 O13           -7.3527    -2.9455    -5.4234 O.2     
  14 N14           -7.9938    -1.2637    -4.1206 N.am    
  15 C15           -8.8531    -0.7180    -5.1742 C.3     
  16 H16           -8.3890    -0.8851    -6.1462 H       
  17 C17          -10.2184    -1.4112    -5.1323 C.3     
  18 C18          -11.1347    -0.7805    -6.1841 C.3     
  19 O19          -11.2490     0.6220    -5.9349 O.3     
  20 C20          -10.0100     1.3304    -6.0079 C.3     
  21 C21           -9.0467     0.7849    -4.9503 C.3     
  22 H22           -9.4636     0.9546    -3.9576 H       
  23 O23           -7.7869     1.4503    -5.0607 O.3     
  24 C24           -5.5825    -4.1432    -3.3729 C.ar    
  25 N25           -5.3563    -5.0381    -4.3258 N.ar    
  26 C26           -4.5388    -6.0524    -4.1349 C.ar    
  27 C27           -3.8804    -6.2261    -2.9282 C.ar    
  28 C28           -4.0820    -5.3202    -1.9018 C.ar    
  29 C29           -4.9453    -4.2515    -2.1251 C.ar    
  30 C30           -2.4415    -2.8563     0.0149 C.ar    
  31 C31           -1.2527    -2.1563     0.0024 C.ar    
  32 H32            0.8172     1.8399     0.0041 H       
  33 H33           -0.8627     1.8171     0.0160 H       
  34 H34           -2.5067     0.9975     0.0217 H       
  35 H35           -4.6141    -0.2707     0.0339 H       
  36 H36           -4.7950    -3.9001     0.5445 H       
  37 H37           -5.7059    -2.3709     0.5528 H       
  38 H38           -6.7141    -1.5295    -1.6554 H       
  39 H39           -7.9373    -0.8175    -3.2612 H       
  40 H40          -10.0946    -2.4728    -5.3466 H       
  41 H41          -10.6596    -1.2873    -4.1434 H       
  42 H42          -10.7129    -0.9402    -7.1764 H       
  43 H43          -12.1212    -1.2409    -6.1298 H       
  44 H44           -9.5736     1.1983    -6.9979 H       
  45 H45          -10.1863     2.3907    -5.8267 H       
  46 H46           -7.8348     2.4073    -4.9299 H       
  47 H47           -4.3788    -6.7620    -4.9332 H       
  48 H48           -3.2136    -7.0643    -2.7894 H       
  49 H49           -3.5791    -5.4371    -0.9532 H       
  50 H50           -2.4309    -3.9362     0.0131 H       
  51 H51           -0.3122    -2.6871    -0.0094 H       
@<TRIPOS>BOND
   1    1    2 am
   2    1   32 1
   3    1   33 1
   4    2    3 2
   5    2    4 1
   6    4   31 ar
   7    4    5 ar
   8    5    6 ar
   9    5   34 1
  10    6    7 ar
  11    6   35 1
  12    7    8 1
  13    7   30 ar
  14    8    9 1
  15    8   36 1
  16    8   37 1
  17    9   29 1
  18    9   10 1
  19   10   11 2
  20   10   38 1
  21   11   12 1
  22   11   24 1
  23   12   13 2
  24   12   14 am
  25   14   15 1
  26   14   39 1
  27   15   16 1
  28   15   21 1
  29   15   17 1
  30   17   18 1
  31   17   40 1
  32   17   41 1
  33   18   19 1
  34   18   42 1
  35   18   43 1
  36   19   20 1
  37   20   21 1
  38   20   44 1
  39   20   45 1
  40   21   22 1
  41   21   23 1
  42   23   46 1
  43   24   29 ar
  44   24   25 ar
  45   25   26 ar
  46   26   27 ar
  47   26   47 1
  48   27   28 ar
  49   27   48 1
  50   28   29 ar
  51   28   49 1
  52   30   31 ar
  53   30   50 1
  54   31   51 1

#	End of record

