#	Name: ASD03331667
#	Creating user name:	WinNT
#	Creation time:	15. 06. 2019 20:39

#	Modifying user name:	WinNT
#	Modification time:	15. 06. 2019 20:39

#	Program:	/corina/corina34_cracker 3.40 0067  02.08.2006

@<TRIPOS>MOLECULE
ASD03331667
  42   44    0    0    0
SMALL
NO_CHARGES


@<TRIPOS>ATOM
   1 C1            -0.0166     1.3766     0.0096 C.ar    
   2 C2             0.0021    -0.0041     0.0020 C.ar    
   3 C3             1.2139    -0.6894    -0.0132 C.ar    
   4 C4             2.4079    -0.0030    -0.0205 C.ar    
   5 C5             1.1879     2.0828     0.0019 C.ar    
   6 C6             1.5314     3.5069     0.0063 C.2     
   7 C7             2.4105     1.3876    -0.0130 C.ar    
   8 N8             3.4148     2.3326    -0.0167 N.pl3   
   9 C9             2.8713     3.5881    -0.0061 C.2     
  10 S10            3.7937     5.0894    -0.0068 S.o2    
  11 O11            2.9442     6.0825     0.5512 O.2     
  12 O12            5.0737     4.7742     0.5238 O.2     
  13 N13            4.0352     5.5156    -1.5886 N.am    
  14 C14            2.8927     5.8705    -2.4343 C.3     
  15 C15            4.1430     6.4468    -5.9489 C.ar    
  16 C16            3.6918     5.8169    -4.8052 C.ar    
  17 C17            3.3851     6.5602    -3.6804 C.ar    
  18 C18            3.5291     7.9352    -3.6971 C.ar    
  19 C19            3.9795     8.5699    -4.8385 C.ar    
  20 C20            4.2878     7.8264    -5.9684 C.ar    
  21 O21            4.7319     8.4483    -7.0922 O.3     
  22 C22            4.8568     9.8709    -7.0401 C.3     
  23 O23           -1.1679    -0.6972     0.0099 O.3     
  24 C24           -1.0771    -2.1233     0.0014 C.3     
  25 H25           -0.9574     1.9071     0.0169 H       
  26 H26            1.2176    -1.7693    -0.0191 H       
  27 H27            3.3421    -0.5447    -0.0316 H       
  28 H28            0.8380     4.3348     0.0173 H       
  29 H29            4.3647     2.1365    -0.0264 H       
  30 H30            4.9331     5.5303    -1.9553 H       
  31 H31            2.3499     4.9663    -2.7098 H       
  32 H32            2.2293     6.5399    -1.8865 H       
  33 H33            4.3866     5.8653    -6.8258 H       
  34 H34            3.5785     4.7430    -4.7897 H       
  35 H35            3.2889     8.5136    -2.8172 H       
  36 H36            4.0914     9.6440    -4.8512 H       
  37 H37            3.8840    10.3134    -6.8254 H       
  38 H38            5.5618    10.1453    -6.2554 H       
  39 H39            5.2196    10.2392    -7.9997 H       
  40 H40           -0.5500    -2.4485    -0.8957 H       
  41 H41           -0.5324    -2.4580     0.8842 H       
  42 H42           -2.0795    -2.5513     0.0090 H       
@<TRIPOS>BOND
   1    1    2 ar
   2    1    5 ar
   3    1   25 1
   4    2    3 ar
   5    2   23 1
   6    3    4 ar
   7    3   26 1
   8    4    7 ar
   9    4   27 1
  10    5    7 ar
  11    5    6 1
  12    6    9 2
  13    6   28 1
  14    7    8 1
  15    8    9 1
  16    8   29 1
  17    9   10 1
  18   10   11 2
  19   10   12 2
  20   10   13 am
  21   13   14 1
  22   13   30 1
  23   14   17 1
  24   14   31 1
  25   14   32 1
  26   15   16 ar
  27   15   20 ar
  28   15   33 1
  29   16   17 ar
  30   16   34 1
  31   17   18 ar
  32   18   19 ar
  33   18   35 1
  34   19   20 ar
  35   19   36 1
  36   20   21 1
  37   21   22 1
  38   22   37 1
  39   22   38 1
  40   22   39 1
  41   23   24 1
  42   24   40 1
  43   24   41 1
  44   24   42 1

#	End of record

