#	Name: ASD01840424
#	Creating user name:	WinNT
#	Creation time:	15. 06. 2019 19:37

#	Modifying user name:	WinNT
#	Modification time:	15. 06. 2019 19:37

#	Program:	/corina/corina34_cracker 3.40 0067  02.08.2006

@<TRIPOS>MOLECULE
ASD01840424
  59   62    0    0    0
SMALL
NO_CHARGES


@<TRIPOS>ATOM
   1 C1             0.2611     1.7552    -0.9980 C.ar    
   2 C2             0.3841     0.5320    -1.6195 C.ar    
   3 N3             1.4990    -0.1677    -1.4965 N.ar    
   4 N4             2.4999     0.2427    -0.8111 N.ar    
   5 C5             1.3546     2.2267    -0.2364 C.ar    
   6 C6             1.5104     3.4570     0.5171 C.2     
   7 C7             2.4928     1.4121    -0.1670 C.ar    
   8 S8             3.7250     2.1824     0.8223 S.3     
   9 C9             2.7118     3.5783     1.1344 C.2     
  10 C10           -0.9999     2.5697    -1.1313 C.3     
  11 C11           -0.7562    -0.0106    -2.4419 C.3     
  12 N12            0.5179     4.4243     0.5985 N.pl3   
  13 C13            3.1102     4.7236     1.9514 C.2     
  14 O14            2.3404     5.6527     2.1138 O.2     
  15 N15            4.3297     4.7507     2.5248 N.am    
  16 C16            5.3533     3.7015     2.4115 C.3     
  17 C17            6.5673     4.1532     3.2503 C.3     
  18 C18            5.9437     5.1661     4.2466 C.3     
  19 C19            4.8604     5.8402     3.3642 C.3     
  20 N20            5.3414     4.4755     5.3896 N.am    
  21 S21            5.3962     5.1630     6.8951 S.o2    
  22 C22            4.3944     6.6676     6.7424 C.3     
  23 C23            4.3673     7.4007     8.0850 C.3     
  24 C24            3.5224     8.6697     7.9562 C.3     
  25 C25            3.4957     9.3918     9.2787 C.ar    
  26 C26            4.4589    10.3403     9.5678 C.ar    
  27 C27            4.4344    11.0026    10.7809 C.ar    
  28 C28            3.4465    10.7168    11.7046 C.ar    
  29 C29            2.4828     9.7690    11.4151 C.ar    
  30 C30            2.5047     9.1098    10.2003 C.ar    
  31 O31            4.7502     4.2170     7.7360 O.2     
  32 O32            6.7660     5.4926     7.0802 O.2     
  33 H33           -1.6441     2.3852    -0.2716 H       
  34 H34           -0.7456     3.6287    -1.1742 H       
  35 H35           -1.5220     2.2841    -2.0445 H       
  36 H36           -0.6493     0.3210    -3.4747 H       
  37 H37           -0.7433    -1.1000    -2.4068 H       
  38 H38           -1.7008     0.3547    -2.0389 H       
  39 H39           -0.4028     4.1923     0.4002 H       
  40 H40            0.7452     5.3322     0.8537 H       
  41 H41            4.9640     2.7603     2.7997 H       
  42 H42            5.6473     3.5814     1.3687 H       
  43 H43            7.0044     3.3083     3.7824 H       
  44 H44            7.3116     4.6404     2.6203 H       
  45 H45            6.6839     5.8944     4.5779 H       
  46 H46            5.3043     6.6170     2.7416 H       
  47 H47            4.0700     6.2581     3.9877 H       
  48 H48            4.9105     3.6155     5.2645 H       
  49 H49            4.8282     7.3173     5.9823 H       
  50 H50            3.3779     6.3996     6.4542 H       
  51 H51            3.9335     6.7509     8.8451 H       
  52 H52            5.3838     7.6687     8.3732 H       
  53 H53            3.9562     9.3195     7.1961 H       
  54 H54            2.5059     8.4017     7.6680 H       
  55 H55            5.2307    10.5635     8.8461 H       
  56 H56            5.1873    11.7431    11.0071 H       
  57 H57            3.4278    11.2338    12.6527 H       
  58 H58            1.7112     9.5455    12.1369 H       
  59 H59            1.7496     8.3720     9.9726 H       
@<TRIPOS>BOND
   1    1    2 ar
   2    1    5 ar
   3    1   10 1
   4    2   11 1
   5    2    3 ar
   6    3    4 ar
   7    4    7 ar
   8    5    7 ar
   9    5    6 1
  10    6    9 2
  11    6   12 1
  12    7    8 1
  13    8    9 1
  14    9   13 1
  15   10   33 1
  16   10   34 1
  17   10   35 1
  18   11   36 1
  19   11   37 1
  20   11   38 1
  21   12   39 1
  22   12   40 1
  23   13   14 2
  24   13   15 am
  25   15   16 1
  26   15   19 1
  27   16   17 1
  28   16   41 1
  29   16   42 1
  30   17   18 1
  31   17   43 1
  32   17   44 1
  33   18   19 1
  34   18   20 1
  35   18   45 1
  36   19   46 1
  37   19   47 1
  38   20   21 am
  39   20   48 1
  40   21   22 1
  41   21   31 2
  42   21   32 2
  43   22   23 1
  44   22   49 1
  45   22   50 1
  46   23   24 1
  47   23   51 1
  48   23   52 1
  49   24   25 1
  50   24   53 1
  51   24   54 1
  52   25   26 ar
  53   25   30 ar
  54   26   27 ar
  55   26   55 1
  56   27   28 ar
  57   27   56 1
  58   28   29 ar
  59   28   57 1
  60   29   30 ar
  61   29   58 1
  62   30   59 1

#	End of record

