#	Name: ASD01882891
#	Creating user name:	WinNT
#	Creation time:	15. 06. 2019 19:45

#	Modifying user name:	WinNT
#	Modification time:	15. 06. 2019 19:45

#	Program:	/corina/corina34_cracker 3.40 0067  02.08.2006

@<TRIPOS>MOLECULE
ASD01882891
  56   60    0    0    0
SMALL
NO_CHARGES


@<TRIPOS>ATOM
   1 C1             0.1225     1.4442    -0.0010 C.2     
   2 N2             0.2237     0.1230    -0.0547 N.2     
   3 C3             1.4141    -0.4859    -0.0505 C.2     
   4 C4             2.5985     0.2910     0.0124 C.2     
   5 C5             2.4827     1.6344     0.0667 C.2     
   6 N6             1.2408     2.2052     0.0596 N.pl3   
   7 O7            -1.0089     2.1824    -0.0038 O.3     
   8 C8             0.8566     3.6261     0.1104 C.3     
   9 C9            -0.6810     3.5962     0.0670 C.3     
  10 O10            1.4808    -1.7046    -0.1003 O.2     
  11 C11            3.7146     2.4996     0.1351 C.3     
  12 F12            4.8547     1.6889     0.1298 F       
  13 C13           -1.1920     4.3271    -1.1763 C.3     
  14 O14           -2.6209     4.3119    -1.1842 O.3     
  15 C15           -3.2386     4.9234    -2.2289 C.ar    
  16 C16           -4.6239     4.9464    -2.3002 C.ar    
  17 C17           -5.2494     5.5686    -3.3632 C.ar    
  18 C18           -4.4961     6.1681    -4.3555 C.ar    
  19 C19           -3.1153     6.1461    -4.2871 C.ar    
  20 C20           -2.4850     5.5306    -3.2230 C.ar    
  21 C21           -4.3132     6.7817    -6.7668 C.3     
  22 C22           -4.9777     7.6063    -7.8670 C.3     
  23 C23           -6.3913     7.1278    -8.1668 C.3     
  24 C24           -7.2364     6.9611    -6.9125 C.3     
  25 C25           -6.5188     6.1795    -5.8181 C.3     
  26 C26           -6.3222     4.7215    -6.2070 C.3     
  27 C27           -5.3623     4.5509    -7.3748 C.3     
  28 C28           -4.0778     5.3469    -7.2060 C.3     
  29 C29           -5.1786     6.8437    -5.5098 C.3     
  30 H30            3.5699    -0.1810     0.0172 H       
  31 H31            1.2060     4.0838     1.0359 H       
  32 H32            1.2512     4.1600    -0.7541 H       
  33 H33           -1.0995     4.0400     0.9703 H       
  34 H34            3.7388     3.1662    -0.7270 H       
  35 H35            3.6932     3.0905     1.0508 H       
  36 H36           -0.8396     5.3585    -1.1619 H       
  37 H37           -0.8184     3.8279    -2.0704 H       
  38 H38           -5.2128     4.4780    -1.5254 H       
  39 H39           -6.3278     5.5865    -3.4193 H       
  40 H40           -2.5290     6.6144    -5.0638 H       
  41 H41           -1.4065     5.5179    -3.1674 H       
  42 H42           -3.3402     7.2426    -6.5348 H       
  43 H43           -5.0088     8.6560    -7.5568 H       
  44 H44           -4.3725     7.5394    -8.7772 H       
  45 H45           -6.8779     7.8995    -8.7967 H       
  46 H46           -6.3833     6.2228    -8.7619 H       
  47 H47           -7.5046     7.9513    -6.5255 H       
  48 H48           -8.1670     6.4425    -7.1703 H       
  49 H49           -7.1360     6.2160    -4.9066 H       
  50 H50           -5.9668     4.1451    -5.3493 H       
  51 H51           -7.2991     4.3011    -6.4927 H       
  52 H52           -5.0851     3.4779    -7.4235 H       
  53 H53           -5.8455     4.7718    -8.3194 H       
  54 H54           -3.5424     5.3568    -8.1686 H       
  55 H55           -3.4241     4.8381    -6.4896 H       
  56 H56           -5.3553     7.8946    -5.2536 H       
@<TRIPOS>BOND
   1    1    2 2
   2    1    6 1
   3    1    7 1
   4    2    3 1
   5    3    4 1
   6    3   10 2
   7    4    5 2
   8    4   30 1
   9    5    6 1
  10    5   11 1
  11    6    8 1
  12    7    9 1
  13    8    9 1
  14    8   31 1
  15    8   32 1
  16    9   13 1
  17    9   33 1
  18   11   12 1
  19   11   34 1
  20   11   35 1
  21   13   14 1
  22   13   36 1
  23   13   37 1
  24   14   15 1
  25   15   16 ar
  26   15   20 ar
  27   16   17 ar
  28   16   38 1
  29   17   18 ar
  30   17   39 1
  31   18   19 ar
  32   18   29 1
  33   19   20 ar
  34   19   40 1
  35   20   41 1
  36   21   22 1
  37   21   28 1
  38   21   29 1
  39   21   42 1
  40   22   23 1
  41   22   43 1
  42   22   44 1
  43   23   24 1
  44   23   45 1
  45   23   46 1
  46   24   25 1
  47   24   47 1
  48   24   48 1
  49   25   26 1
  50   25   29 1
  51   25   49 1
  52   26   27 1
  53   26   50 1
  54   26   51 1
  55   27   28 1
  56   27   52 1
  57   27   53 1
  58   28   54 1
  59   28   55 1
  60   29   56 1

#	End of record

