#	Name: ASD05380228
#	Creating user name:	WinNT
#	Creation time:	15. 06. 2019 20:59

#	Modifying user name:	WinNT
#	Modification time:	15. 06. 2019 20:59

#	Program:	/corina/corina34_cracker 3.40 0067  02.08.2006

@<TRIPOS>MOLECULE
ASD05380228
  50   54    0    0    0
SMALL
NO_CHARGES


@<TRIPOS>ATOM
   1 C1             0.4049     2.4079     0.8831 C.ar    
   2 C2             0.0743     1.1640     0.3624 C.ar    
   3 C3             1.0497     0.3162    -0.1131 C.ar    
   4 C4             2.3883     0.7105    -0.0726 C.ar    
   5 C5             2.7212     1.9773     0.4575 C.ar    
   6 C6             1.7190     2.8197     0.9338 C.ar    
   7 N7             3.3809    -0.0932    -0.5298 N.2     
   8 C8             4.6258     0.2736    -0.4916 C.2     
   9 N9             5.0370     1.4734     0.0009 N.am    
  10 C10            4.1396     2.3626     0.4866 C.2     
  11 C11            5.6683    -0.6782    -1.0190 C.3     
  12 C12            6.9695     2.4296    -1.0886 C.ar    
  13 C13            6.4010     1.7912     0.0053 C.ar    
  14 C14            8.3170     2.7430    -1.0822 C.ar    
  15 C15            9.0987     2.4201     0.0143 C.ar    
  16 C16            8.5334     1.7838     1.1066 C.ar    
  17 C17            7.1863     1.4687     1.1039 C.ar    
  18 N18            5.2953    -2.0519    -0.6726 N.pl3   
  19 C19            6.2705    -3.0283    -0.5682 C.ar    
  20 N20            7.5500    -2.7368    -0.7789 N.ar    
  21 C21            8.4872    -3.6617    -0.6811 C.ar    
  22 C22            5.9317    -4.3496    -0.2312 C.ar    
  23 O23            4.4932     3.4398     0.9298 O.2     
  24 C24            6.9656    -5.2969    -0.1397 C.ar    
  25 N25            4.7737    -4.9941     0.0500 N.2     
  26 C26            5.0249    -6.2459     0.3020 C.2     
  27 N27            6.3633    -6.4825     0.1978 N.pl3   
  28 N28            8.2161    -4.9127    -0.3734 N.ar    
  29 C29            2.0695     4.1714     1.5005 C.3     
  30 C30            5.7595    -0.5427    -2.5403 C.3     
  31 O31            4.4692    -0.7570    -3.1158 O.3     
  32 F32            9.2981     1.4694     2.1750 F       
  33 F33            8.8708     3.3642    -2.1465 F       
  34 H34           -0.3749     3.0602     1.2474 H       
  35 H35           -0.9608     0.8573     0.3303 H       
  36 H36            0.7805    -0.6493    -0.5152 H       
  37 H37            6.6349    -0.4411    -0.5745 H       
  38 H38            6.3613     2.6773    -1.9460 H       
  39 H39           10.1506     2.6648     0.0176 H       
  40 H40            6.7458     0.9724     1.9560 H       
  41 H41            4.3649    -2.2771    -0.5164 H       
  42 H42            9.5147    -3.3816    -0.8605 H       
  43 H43            4.2824    -6.9878     0.5565 H       
  44 H44            6.8083    -7.3332     0.3368 H       
  45 H45            2.1436     4.8969     0.6904 H       
  46 H46            1.2936     4.4848     2.1991 H       
  47 H47            3.0247     4.1102     2.0219 H       
  48 H48            6.1097     0.4574    -2.7956 H       
  49 H49            6.4586    -1.2829    -2.9297 H       
  50 H50            4.4520    -0.6862    -4.0801 H       
@<TRIPOS>BOND
   1    1    2 ar
   2    1    6 ar
   3    1   34 1
   4    2    3 ar
   5    2   35 1
   6    3    4 ar
   7    3   36 1
   8    4    5 ar
   9    4    7 1
  10    5    6 ar
  11    5   10 1
  12    6   29 1
  13    7    8 2
  14    8    9 1
  15    8   11 1
  16    9   10 am
  17    9   13 1
  18   10   23 2
  19   11   18 1
  20   11   30 1
  21   11   37 1
  22   12   13 ar
  23   12   14 ar
  24   12   38 1
  25   13   17 ar
  26   14   15 ar
  27   14   33 1
  28   15   16 ar
  29   15   39 1
  30   16   17 ar
  31   16   32 1
  32   17   40 1
  33   18   19 1
  34   18   41 1
  35   19   20 ar
  36   19   22 ar
  37   20   21 ar
  38   21   28 ar
  39   21   42 1
  40   22   24 ar
  41   22   25 1
  42   24   28 ar
  43   24   27 1
  44   25   26 2
  45   26   27 1
  46   26   43 1
  47   27   44 1
  48   29   45 1
  49   29   46 1
  50   29   47 1
  51   30   31 1
  52   30   48 1
  53   30   49 1
  54   31   50 1

#	End of record

