#	Name: ASD03430259
#	Creating user name:	WinNT
#	Creation time:	15. 06. 2019 20:40

#	Modifying user name:	WinNT
#	Modification time:	15. 06. 2019 20:40

#	Program:	/corina/corina34_cracker 3.40 0067  02.08.2006

@<TRIPOS>MOLECULE
ASD03430259
  53   58    0    0    0
SMALL
NO_CHARGES


@<TRIPOS>ATOM
   1 C1            -0.4575     1.5562     0.0598 C.ar    
   2 C2            -0.3564     0.1737     0.0188 C.ar    
   3 C3             0.8816    -0.4306    -0.0286 C.ar    
   4 C4             2.0443     0.3350    -0.0263 C.ar    
   5 C5             1.9393     1.7213     0.0099 C.ar    
   6 C6             0.6962     2.3309     0.0545 C.ar    
   7 O7             3.1560    -0.4548    -0.0483 O.3     
   8 C8             1.3161    -1.8699    -0.1008 C.3     
   9 C9             2.7940    -1.7724    -0.5038 C.3     
  10 C10            0.3125    -3.6743     0.9278 C.ar    
  11 C11            1.1378    -2.5869     1.2045 C.ar    
  12 C12            0.5173    -2.6570    -1.0997 C.2     
  13 N13           -0.0317    -3.6874    -0.4260 N.am    
  14 O14            0.3908    -2.4132    -2.2810 O.2     
  15 C15            1.6037    -2.3682     2.4814 C.ar    
  16 C16            1.2545    -3.2325     3.5043 C.ar    
  17 C17            0.4368    -4.3157     3.2408 C.ar    
  18 C18           -0.0332    -4.5390     1.9629 C.ar    
  19 C19           -0.8896    -4.7027    -1.0419 C.3     
  20 C20           -2.3343    -4.3063    -0.8781 C.ar    
  21 N21           -2.6375    -3.2085    -0.2130 N.ar    
  22 C22           -3.3255    -5.0942    -1.4313 C.ar    
  23 C23           -4.6518    -4.7205    -1.2748 C.ar    
  24 C24           -4.9319    -3.5634    -0.5647 C.ar    
  25 C25           -3.8871    -2.8227    -0.0447 C.ar    
  26 O26           -1.6885     2.1368     0.0991 O.3     
  27 C27           -1.7406     3.5068     0.5120 C.3     
  28 C28           -0.6422     4.2752    -0.2353 C.3     
  29 O29            0.6208     3.6898     0.0969 O.3     
  30 S30           -2.9096    -6.5548    -2.3247 S.o2    
  31 C31           -2.0758    -5.9501    -3.8178 C.3     
  32 O32           -1.9899    -7.2325    -1.4797 O.2     
  33 O33           -4.1650    -7.1334    -2.6542 O.2     
  34 H34           -1.2508    -0.4317     0.0243 H       
  35 H35            2.8334     2.3270     0.0036 H       
  36 H36            2.9063    -1.8525    -1.5851 H       
  37 H37            3.3850    -2.5338     0.0052 H       
  38 H38            2.2426    -1.5215     2.6849 H       
  39 H39            1.6202    -3.0614     4.5060 H       
  40 H40            0.1649    -4.9906     4.0389 H       
  41 H41           -0.6714    -5.3875     1.7649 H       
  42 H42           -0.6530    -4.7833    -2.1028 H       
  43 H43           -0.7196    -5.6644    -0.5576 H       
  44 H44           -5.4475    -5.3167    -1.6965 H       
  45 H45           -5.9533    -3.2421    -0.4236 H       
  46 H46           -4.0968    -1.9201     0.5101 H       
  47 H47           -2.7156     3.9279     0.2669 H       
  48 H48           -1.5701     3.5738     1.5865 H       
  49 H49           -0.8088     4.2022    -1.3100 H       
  50 H50           -0.6540     5.3219     0.0687 H       
  51 H51           -1.1219    -5.4993    -3.5440 H       
  52 H52           -1.9017    -6.7829    -4.4993 H       
  53 H53           -2.7026    -5.2049    -4.3075 H       
@<TRIPOS>BOND
   1    1    2 ar
   2    1    6 ar
   3    1   26 1
   4    2    3 ar
   5    2   34 1
   6    3    4 ar
   7    3    8 1
   8    4    5 ar
   9    4    7 1
  10    5    6 ar
  11    5   35 1
  12    6   29 1
  13    7    9 1
  14    8    9 1
  15    8   11 1
  16    8   12 1
  17    9   36 1
  18    9   37 1
  19   10   11 ar
  20   10   13 1
  21   10   18 ar
  22   11   15 ar
  23   12   13 am
  24   12   14 2
  25   13   19 1
  26   15   16 ar
  27   15   38 1
  28   16   17 ar
  29   16   39 1
  30   17   18 ar
  31   17   40 1
  32   18   41 1
  33   19   20 1
  34   19   42 1
  35   19   43 1
  36   20   21 ar
  37   20   22 ar
  38   21   25 ar
  39   22   23 ar
  40   22   30 1
  41   23   24 ar
  42   23   44 1
  43   24   25 ar
  44   24   45 1
  45   25   46 1
  46   26   27 1
  47   27   28 1
  48   27   47 1
  49   27   48 1
  50   28   29 1
  51   28   49 1
  52   28   50 1
  53   30   31 1
  54   30   32 2
  55   30   33 2
  56   31   51 1
  57   31   52 1
  58   31   53 1

#	End of record

