#	Name: ASD08390001
#	Creating user name:	WinNT
#	Creation time:	15. 06. 2019 21:19

#	Modifying user name:	WinNT
#	Modification time:	15. 06. 2019 21:19

#	Program:	/corina/corina34_cracker 3.40 0067  02.08.2006

@<TRIPOS>MOLECULE
ASD08390001
  66   70    0    0    0
SMALL
NO_CHARGES


@<TRIPOS>ATOM
   1 C1            -0.3517     1.4448    -0.2146 C.2     
   2 N2            -0.1460     0.2325     0.1821 N.2     
   3 C3            -1.4244    -0.4790     0.3183 C.3     
   4 C4            -2.4808     0.5689    -0.0852 C.3     
   5 N5            -1.6732     1.7594    -0.3994 N.pl3   
   6 C6            -3.2508     0.1085    -1.2961 C.ar    
   7 C7            -4.5050    -0.4529    -1.1452 C.ar    
   8 C8            -5.2114    -0.8753    -2.2559 C.ar    
   9 C9            -4.6637    -0.7358    -3.5174 C.ar    
  10 C10           -3.4099    -0.1736    -3.6684 C.ar    
  11 C11           -2.7054     0.2527    -2.5580 C.ar    
  12 C12           -1.4719    -1.6626    -0.6133 C.2     
  13 C13           -1.6363    -0.9285     1.7653 C.3     
  14 O14           -0.7559    -1.6522    -1.7487 O.3     
  15 O15           -2.1545    -2.6208    -0.3383 O.2     
  16 C16           -0.8498    -2.8262    -2.5979 C.3     
  17 C17           -2.1925     3.0558    -0.8420 C.3     
  18 C18           -2.5990     3.8706     0.3588 C.ar    
  19 C19           -1.7168     4.7839     0.9051 C.ar    
  20 C20           -2.0896     5.5313     2.0066 C.ar    
  21 C21           -3.3449     5.3657     2.5615 C.ar    
  22 C22           -4.2274     4.4530     2.0146 C.ar    
  23 C23           -3.8561     3.7087     0.9105 C.ar    
  24 C24            0.7451     2.4129    -0.4438 C.ar    
  25 C25            1.8080     2.4925     0.4555 C.ar    
  26 C26            0.7222     3.2448    -1.5629 C.ar    
  27 C27            1.7474     4.1446    -1.7713 C.ar    
  28 C28            2.7964     4.2225    -0.8728 C.ar    
  29 C29            2.8274     3.3963     0.2363 C.ar    
  30 C30           -0.6540    -2.4225    -4.0366 C.ar    
  31 C31           -1.4271    -2.9982    -5.0274 C.ar    
  32 C32           -1.2474    -2.6279    -6.3470 C.ar    
  33 C33           -0.2949    -1.6815    -6.6758 C.ar    
  34 C34            0.4776    -1.1051    -5.6848 C.ar    
  35 C35            0.2949    -1.4723    -4.3647 C.ar    
  36 C36            0.2316    -3.8322    -2.1988 C.3     
  37 H37           -3.1556     0.7743     0.7457 H       
  38 H38           -4.9329    -0.5618    -0.1596 H       
  39 H39           -6.1910    -1.3145    -2.1380 H       
  40 H40           -5.2153    -1.0664    -4.3851 H       
  41 H41           -2.9819    -0.0650    -4.6540 H       
  42 H42           -1.7258     0.6919    -2.6760 H       
  43 H43           -1.6195    -0.0588     2.4221 H       
  44 H44           -2.5998    -1.4308     1.8523 H       
  45 H45           -0.8408    -1.6161     2.0524 H       
  46 H46           -1.8325    -3.2828    -2.4793 H       
  47 H47           -1.4189     3.5870    -1.3966 H       
  48 H48           -3.0585     2.8999    -1.4853 H       
  49 H49           -0.7361     4.9133     0.4716 H       
  50 H50           -1.4001     6.2443     2.4339 H       
  51 H51           -3.6359     5.9490     3.4225 H       
  52 H52           -5.2079     4.3234     2.4484 H       
  53 H53           -4.5456     2.9957     0.4832 H       
  54 H54            1.8331     1.8482     1.3220 H       
  55 H55           -0.0961     3.1846    -2.2651 H       
  56 H56            1.7309     4.7891    -2.6377 H       
  57 H57            3.5967     4.9281    -1.0404 H       
  58 H58            3.6490     3.4617     0.9342 H       
  59 H59           -2.1712    -3.7375    -4.7706 H       
  60 H60           -1.8509    -3.0782    -7.1213 H       
  61 H61           -0.1540    -1.3927    -7.7069 H       
  62 H62            1.2220    -0.3660    -5.9417 H       
  63 H63            0.8958    -1.0192    -3.5901 H       
  64 H64            1.2142    -3.3756    -2.3175 H       
  65 H65            0.0899    -4.1243    -1.1582 H       
  66 H66            0.1611    -4.7135    -2.8363 H       
@<TRIPOS>BOND
   1    1    2 2
   2    1   24 1
   3    1    5 1
   4    2    3 1
   5    3   12 1
   6    3   13 1
   7    3    4 1
   8    4    5 1
   9    4    6 1
  10    4   37 1
  11    5   17 1
  12    6    7 ar
  13    6   11 ar
  14    7    8 ar
  15    7   38 1
  16    8    9 ar
  17    8   39 1
  18    9   10 ar
  19    9   40 1
  20   10   11 ar
  21   10   41 1
  22   11   42 1
  23   12   14 1
  24   12   15 2
  25   13   43 1
  26   13   44 1
  27   13   45 1
  28   14   16 1
  29   16   30 1
  30   16   36 1
  31   16   46 1
  32   17   18 1
  33   17   47 1
  34   17   48 1
  35   18   19 ar
  36   18   23 ar
  37   19   20 ar
  38   19   49 1
  39   20   21 ar
  40   20   50 1
  41   21   22 ar
  42   21   51 1
  43   22   23 ar
  44   22   52 1
  45   23   53 1
  46   24   25 ar
  47   24   26 ar
  48   25   29 ar
  49   25   54 1
  50   26   27 ar
  51   26   55 1
  52   27   28 ar
  53   27   56 1
  54   28   29 ar
  55   28   57 1
  56   29   58 1
  57   30   31 ar
  58   30   35 ar
  59   31   32 ar
  60   31   59 1
  61   32   33 ar
  62   32   60 1
  63   33   34 ar
  64   33   61 1
  65   34   35 ar
  66   34   62 1
  67   35   63 1
  68   36   64 1
  69   36   65 1
  70   36   66 1

#	End of record

