#	Name: ASD00170562
#	Creating user name:	WinNT
#	Creation time:	15. 06. 2019 18:32

#	Modifying user name:	WinNT
#	Modification time:	15. 06. 2019 18:32

#	Program:	/corina/corina34_cracker 3.40 0067  02.08.2006

@<TRIPOS>MOLECULE
ASD00170562
  56   59    0    0    0
SMALL
NO_CHARGES


@<TRIPOS>ATOM
   1 C1            -0.3368     0.5953    -0.4840 C.3     
   2 C2            -0.8350    -0.8516    -0.5365 C.3     
   3 C3            -2.3422    -0.8768    -0.2726 C.3     
   4 N4            -2.6195    -0.2923     1.0457 N.3     
   5 C5            -2.1926     1.1116     1.1045 C.3     
   6 C6            -0.6809     1.1962     0.8817 C.3     
   7 C7            -4.0409    -0.4252     1.3921 C.3     
   8 C8            -4.2677     0.0909     2.7897 C.2     
   9 C9            -4.2680    -0.6854     3.8621 C.2     
  10 S10           -4.5627     0.2532     5.3148 S.3     
  11 C11           -4.6843     1.7112     4.4406 C.2     
  12 C12           -4.5010     1.4866     3.0958 C.2     
  13 C13           -4.5469     2.5419     2.0839 C.2     
  14 O14           -3.5560     3.2130     1.8588 O.2     
  15 C15           -5.7965     2.7937     1.3344 C.ar    
  16 C16           -5.8740     3.8632     0.4404 C.ar    
  17 C17           -7.0418     4.0928    -0.2561 C.ar    
  18 C18           -8.1367     3.2652    -0.0697 C.ar    
  19 C19           -8.0659     2.2028     0.8163 C.ar    
  20 C20           -6.9015     1.9595     1.5137 C.ar    
  21 N21           -4.9275     2.9472     5.0045 N.pl3   
  22 Cl22          -9.6037     3.5608    -0.9496 Cl      
  23 N23            1.1151     0.6205    -0.6782 N.pl3   
  24 C24            1.6719     1.4157    -1.6833 C.ar    
  25 C25            0.8662     2.2807    -2.4127 C.ar    
  26 C26            1.4192     3.0653    -3.4056 C.ar    
  27 C27            2.7747     2.9904    -3.6741 C.ar    
  28 C28            3.5797     2.1292    -2.9493 C.ar    
  29 C29            3.0331     1.3467    -1.9511 C.ar    
  30 Cl30           3.4664     3.9782    -4.9229 Cl      
  31 C31            1.9832    -0.1880     0.1815 C.3     
  32 H32           -0.8195     1.1756    -1.2704 H       
  33 H33           -0.6310    -1.2712    -1.5215 H       
  34 H34           -0.3225    -1.4407     0.2240 H       
  35 H35           -2.8553    -0.2989    -1.0413 H       
  36 H36           -2.6977    -1.9070    -0.2951 H       
  37 H37           -2.7063     1.6801     0.3293 H       
  38 H38           -2.4393     1.5256     2.0821 H       
  39 H39           -0.1659     0.6392     1.6645 H       
  40 H40           -0.3667     2.2395     0.9098 H       
  41 H41           -4.6416     0.1524     0.6896 H       
  42 H42           -4.3307    -1.4747     1.3409 H       
  43 H43           -4.1087    -1.7534     3.8450 H       
  44 H44           -5.0212     4.5096     0.2948 H       
  45 H45           -7.1029     4.9199    -0.9479 H       
  46 H46           -8.9230     1.5610     0.9578 H       
  47 H47           -6.8473     1.1307     2.2040 H       
  48 H48           -4.9664     3.0410     5.9692 H       
  49 H49           -5.0596     3.7221     4.4361 H       
  50 H50           -0.1917     2.3393    -2.2038 H       
  51 H51            0.7932     3.7378    -3.9732 H       
  52 H52            4.6371     2.0723    -3.1615 H       
  53 H53            3.6619     0.6751    -1.3855 H       
  54 H54            2.1237    -1.1717    -0.2664 H       
  55 H55            2.9499     0.3044     0.2875 H       
  56 H56            1.5219    -0.2981     1.1629 H       
@<TRIPOS>BOND
   1    1    2 1
   2    1   23 1
   3    1    6 1
   4    1   32 1
   5    2    3 1
   6    2   33 1
   7    2   34 1
   8    3    4 1
   9    3   35 1
  10    3   36 1
  11    4    5 1
  12    4    7 1
  13    5    6 1
  14    5   37 1
  15    5   38 1
  16    6   39 1
  17    6   40 1
  18    7    8 1
  19    7   41 1
  20    7   42 1
  21    8    9 2
  22    8   12 1
  23    9   10 1
  24    9   43 1
  25   10   11 1
  26   11   12 2
  27   11   21 1
  28   12   13 1
  29   13   14 2
  30   13   15 1
  31   15   16 ar
  32   15   20 ar
  33   16   17 ar
  34   16   44 1
  35   17   18 ar
  36   17   45 1
  37   18   19 ar
  38   18   22 1
  39   19   20 ar
  40   19   46 1
  41   20   47 1
  42   21   48 1
  43   21   49 1
  44   23   24 1
  45   23   31 1
  46   24   25 ar
  47   24   29 ar
  48   25   26 ar
  49   25   50 1
  50   26   27 ar
  51   26   51 1
  52   27   28 ar
  53   27   30 1
  54   28   29 ar
  55   28   52 1
  56   29   53 1
  57   31   54 1
  58   31   55 1
  59   31   56 1

#	End of record

