#	Name: ASD01870197
#	Creating user name:	WinNT
#	Creation time:	15. 06. 2019 19:38

#	Modifying user name:	WinNT
#	Modification time:	15. 06. 2019 19:38

#	Program:	/corina/corina34_cracker 3.40 0067  02.08.2006

@<TRIPOS>MOLECULE
ASD01870197
  38   41    0    0    0
SMALL
NO_CHARGES


@<TRIPOS>ATOM
   1 C1            -0.0168     1.3890     0.0097 C.ar    
   2 C2             0.0021    -0.0041     0.0020 C.ar    
   3 C3             1.1787    -0.6895    -0.0125 C.ar    
   4 C4             2.3941     0.0134    -0.0203 C.ar    
   5 C5             2.3756     1.4326    -0.0130 C.ar    
   6 C6             1.1407     2.1050     0.0025 C.ar    
   7 C7             3.6272    -0.6637    -0.0358 C.ar    
   8 C8             4.7900     0.0351    -0.0436 C.ar    
   9 C9             4.7882     1.4439    -0.0361 C.ar    
  10 C10            3.5864     2.1337    -0.0214 C.ar    
  11 C11            5.8880     2.4286    -0.0415 C.2     
  12 N12            5.3952     3.6790    -0.0301 N.am    
  13 C13            3.9298     3.6021    -0.0168 C.3     
  14 C14            3.6565    -2.1704    -0.0431 C.3     
  15 C15            3.5284    -2.6685    -1.4596 C.ar    
  16 C16            4.6547    -2.8761    -2.2328 C.ar    
  17 N17            4.5505    -3.3118    -3.4732 N.ar    
  18 C18            3.3792    -3.5658    -4.0228 C.ar    
  19 C19            2.2091    -3.3821    -3.3102 C.ar    
  20 C20            2.2790    -2.9298    -2.0017 C.ar    
  21 O21            7.0708     2.1485    -0.0540 O.2     
  22 C22            3.3154    -4.0617    -5.4445 C.3     
  23 F23            4.6126    -4.2782    -5.9215 F       
  24 F24            2.5962    -5.2608    -5.4883 F       
  25 F25            2.6782    -3.1063    -6.2434 F       
  26 H26           -0.9637     1.9083     0.0170 H       
  27 H27           -0.9306    -0.5486     0.0080 H       
  28 H28            1.1770    -1.7695    -0.0175 H       
  29 H29            1.1108     3.1846     0.0079 H       
  30 H30            5.7302    -0.4960    -0.0555 H       
  31 H31            5.9198     4.4948    -0.0308 H       
  32 H32            3.5210     4.0855    -0.9040 H       
  33 H33            3.5378     4.0759     0.8832 H       
  34 H34            4.5991    -2.5175     0.3803 H       
  35 H35            2.8279    -2.5529     0.5529 H       
  36 H36            5.6316    -2.6789    -1.8166 H       
  37 H37            1.2526    -3.5915    -3.7660 H       
  38 H38            1.3815    -2.7771    -1.4208 H       
@<TRIPOS>BOND
   1    1    2 ar
   2    1    6 ar
   3    1   26 1
   4    2    3 ar
   5    2   27 1
   6    3    4 ar
   7    3   28 1
   8    4    5 ar
   9    4    7 ar
  10    5    6 ar
  11    5   10 ar
  12    6   29 1
  13    7    8 ar
  14    7   14 1
  15    8    9 ar
  16    8   30 1
  17    9   10 ar
  18    9   11 1
  19   10   13 1
  20   11   12 am
  21   11   21 2
  22   12   13 1
  23   12   31 1
  24   13   32 1
  25   13   33 1
  26   14   15 1
  27   14   34 1
  28   14   35 1
  29   15   16 ar
  30   15   20 ar
  31   16   17 ar
  32   16   36 1
  33   17   18 ar
  34   18   19 ar
  35   18   22 1
  36   19   20 ar
  37   19   37 1
  38   20   38 1
  39   22   23 1
  40   22   24 1
  41   22   25 1

#	End of record

