#	Name: ASD03240534
#	Creating user name:	WinNT
#	Creation time:	15. 06. 2019 20:35

#	Modifying user name:	WinNT
#	Modification time:	15. 06. 2019 20:35

#	Program:	/corina/corina34_cracker 3.40 0067  02.08.2006

@<TRIPOS>MOLECULE
ASD03240534
  63   69    0    0    0
SMALL
NO_CHARGES


@<TRIPOS>ATOM
   1 C1            -0.0166     1.3755     0.0096 C.ar    
   2 C2             0.0021    -0.0041     0.0020 C.ar    
   3 N3             1.1422    -0.6683    -0.0058 N.ar    
   4 C4             2.3145    -0.0481    -0.0057 C.ar    
   5 C5             2.3702     1.3442    -0.0124 C.ar    
   6 C6             1.1861     2.0698     0.0018 C.ar    
   7 N7             3.4820    -0.8058     0.0220 N.pl3   
   8 C8             4.3592    -0.7192     1.0997 C.ar    
   9 C9             4.9951     0.4893     1.4037 C.ar    
  10 C10            4.7634     1.6837     0.5620 C.2     
  11 N11            3.5939     2.0276    -0.0512 N.pl3   
  12 C12            4.6053    -1.8388     1.8831 C.ar    
  13 C13            5.4646    -1.7532     2.9619 C.ar    
  14 C14            6.0854    -0.5551     3.2706 C.ar    
  15 C15            5.8559     0.5657     2.4983 C.ar    
  16 N16            5.6749     2.5946     0.2849 N.2     
  17 C17            5.1448     3.5401    -0.5059 C.2     
  18 C18            3.8227     3.2043    -0.7372 C.2     
  19 C19            2.8501     3.9544    -1.5548 C.ar    
  20 C20            2.7510     5.3425    -1.4300 C.ar    
  21 C21            2.0278     3.2808    -2.4615 C.ar    
  22 C22            1.1209     3.9885    -3.2223 C.ar    
  23 C23            1.0246     5.3626    -3.0896 C.ar    
  24 C24            1.8395     6.0371    -2.1974 C.ar    
  25 C25            5.8491     4.7308    -1.0361 C.ar    
  26 C26            0.0316     6.1288    -3.9249 C.3     
  27 N27           -1.0473     5.2808    -4.4494 N.3     
  28 C28           -0.4695     7.4199    -3.2564 C.3     
  29 C29           -0.3825     8.0786    -4.6432 C.3     
  30 C30            0.6845     7.0245    -4.9909 C.3     
  31 C31            5.5515     5.2209    -2.3056 C.ar    
  32 N32            6.1765     6.2797    -2.7806 N.ar    
  33 C33            7.1017     6.9151    -2.0805 C.ar    
  34 C34            7.4533     6.4859    -0.8058 C.ar    
  35 C35            6.8195     5.3835    -0.2661 C.ar    
  36 O36            7.7164     8.0006    -2.6141 O.3     
  37 C37            7.3136     8.3939    -3.9275 C.3     
  38 H38           -0.9556     1.9091     0.0170 H       
  39 H39           -0.9306    -0.5486     0.0028 H       
  40 H40            1.2002     3.1497     0.0064 H       
  41 H41            3.6863    -1.4002    -0.7168 H       
  42 H42            4.1244    -2.7772     1.6494 H       
  43 H43            5.6529    -2.6268     3.5683 H       
  44 H44            6.7517    -0.4971     4.1186 H       
  45 H45            6.3413     1.4994     2.7413 H       
  46 H46            3.3864     5.8702    -0.7342 H       
  47 H47            2.1024     2.2085    -2.5665 H       
  48 H48            0.4847     3.4691    -3.9236 H       
  49 H49            1.7590     7.1096    -2.0991 H       
  50 H50           -0.6743     4.4589    -4.9004 H       
  51 H51           -1.6969     5.0294    -3.7194 H       
  52 H52           -1.4864     7.3458    -2.8712 H       
  53 H53            0.2298     7.8356    -2.5309 H       
  54 H54           -1.2961     7.9831    -5.2300 H       
  55 H55            0.0015     9.0984    -4.6190 H       
  56 H56            1.6997     7.3317    -4.7399 H       
  57 H57            0.5979     6.6335    -6.0046 H       
  58 H58            4.8016     4.7282    -2.9067 H       
  59 H59            8.2101     7.0111    -0.2422 H       
  60 H60            7.0726     5.0285     0.7220 H       
  61 H61            7.8813     9.2726    -4.2338 H       
  62 H62            7.5025     7.5780    -4.6251 H       
  63 H63            6.2497     8.6313    -3.9255 H       
@<TRIPOS>BOND
   1    1    2 ar
   2    1    6 ar
   3    1   38 1
   4    2    3 ar
   5    2   39 1
   6    3    4 ar
   7    4    5 ar
   8    4    7 1
   9    5    6 ar
  10    5   11 1
  11    6   40 1
  12    7    8 1
  13    7   41 1
  14    8    9 ar
  15    8   12 ar
  16    9   10 1
  17    9   15 ar
  18   10   11 1
  19   10   16 2
  20   11   18 1
  21   12   13 ar
  22   12   42 1
  23   13   14 ar
  24   13   43 1
  25   14   15 ar
  26   14   44 1
  27   15   45 1
  28   16   17 1
  29   17   18 2
  30   17   25 1
  31   18   19 1
  32   19   20 ar
  33   19   21 ar
  34   20   24 ar
  35   20   46 1
  36   21   22 ar
  37   21   47 1
  38   22   23 ar
  39   22   48 1
  40   23   24 ar
  41   23   26 1
  42   24   49 1
  43   25   31 ar
  44   25   35 ar
  45   26   27 1
  46   26   28 1
  47   26   30 1
  48   27   50 1
  49   27   51 1
  50   28   29 1
  51   28   52 1
  52   28   53 1
  53   29   30 1
  54   29   54 1
  55   29   55 1
  56   30   56 1
  57   30   57 1
  58   31   32 ar
  59   31   58 1
  60   32   33 ar
  61   33   34 ar
  62   33   36 1
  63   34   35 ar
  64   34   59 1
  65   35   60 1
  66   36   37 1
  67   37   61 1
  68   37   62 1
  69   37   63 1

#	End of record

