#	Name: ASD01916636
#	Creating user name:	WinNT
#	Creation time:	15. 06. 2019 20:07

#	Modifying user name:	WinNT
#	Modification time:	15. 06. 2019 20:07

#	Program:	/corina/corina34_cracker 3.40 0067  02.08.2006

@<TRIPOS>MOLECULE
ASD01916636
  19   20    0    0    0
SMALL
NO_CHARGES


@<TRIPOS>ATOM
   1 C1            -0.0170     1.4051     0.0098 C.2     
   2 C2             0.0021    -0.0041     0.0020 C.2     
   3 C3             1.1968    -0.6541    -0.0129 C.2     
   4 C4             2.3912     0.0853    -0.0203 C.2     
   5 C5             2.3569     1.4343    -0.0123 C.2     
   6 N6             1.1651     2.0992     0.0022 N.pl3   
   7 N7            -1.0090     2.2842     0.0293 N.2     
   8 C8            -0.5004     3.5187     0.0287 C.2     
   9 C9             0.8476     3.4301     0.0128 C.2     
  10 C10           -1.2972     4.7977     0.0476 C.3     
  11 O11           -0.4057     5.9145     0.0402 O.3     
  12 H12           -0.9225    -0.5622     0.0082 H       
  13 H13            1.2270    -1.7337    -0.0186 H       
  14 H14            3.3412    -0.4283    -0.0321 H       
  15 H15            3.2812     1.9930    -0.0178 H       
  16 H16            1.5443     4.2554     0.0107 H       
  17 H17           -1.9388     4.8391    -0.8326 H       
  18 H18           -1.9120     4.8296     0.9471 H       
  19 H19           -0.8506     6.7730     0.0515 H       
@<TRIPOS>BOND
   1    1    2 1
   2    1    6 1
   3    1    7 2
   4    2    3 2
   5    2   12 1
   6    3    4 1
   7    3   13 1
   8    4    5 2
   9    4   14 1
  10    5    6 1
  11    5   15 1
  12    6    9 1
  13    7    8 1
  14    8    9 2
  15    8   10 1
  16    9   16 1
  17   10   11 1
  18   10   17 1
  19   10   18 1
  20   11   19 1

#	End of record

