#	Name: ASD01918038
#	Creating user name:	WinNT
#	Creation time:	15. 06. 2019 20:10

#	Modifying user name:	WinNT
#	Modification time:	15. 06. 2019 20:10

#	Program:	/corina/corina34_cracker 3.40 0067  02.08.2006

@<TRIPOS>MOLECULE
ASD01918038
  35   35    0    0    0
SMALL
NO_CHARGES


@<TRIPOS>ATOM
   1 F1            -5.6628   -10.6832    -0.0005 F       
   2 F2            -3.6731   -10.6617     1.1219 F       
   3 F3            -3.6962   -10.6495    -1.1625 F       
   4 O4            -0.0173     1.4248     0.0099 O.3     
   5 O5            -3.7588    -1.8096     0.0282 O.2     
   6 N6            -3.0546    -3.9134     0.0102 N.am    
   7 C7            -1.4126    -2.0635     0.0045 C.3     
   8 C8            -1.4333    -0.5336     0.0129 C.3     
   9 C9            -4.4290    -4.4205     0.0206 C.3     
  10 C10           -4.4086    -5.9273     0.0123 C.ar    
  11 C11           -2.8264    -2.5851     0.0152 C.2     
  12 C12            0.0021    -0.0041     0.0020 C.3     
  13 C13           -4.3878    -6.6248     1.2056 C.ar    
  14 C14           -4.4164    -6.6121    -1.1885 C.ar    
  15 C15           -4.3715    -8.6917    -0.0029 C.ar    
  16 C16           -4.3690    -8.0070     1.1980 C.ar    
  17 C17           -4.3976    -7.9943    -1.1961 C.ar    
  18 C18           -4.3505   -10.1985    -0.0112 C.3     
  19 C19            1.2801     2.0237     0.0007 C.3     
  20 H20           -0.9024    -2.4150    -0.8923 H       
  21 H21           -0.8854    -2.4246     0.8875 H       
  22 H22           -1.9605    -0.1726    -0.8702 H       
  23 H23           -1.9435    -0.1821     0.9097 H       
  24 H24           -4.9392    -4.0689     0.9174 H       
  25 H25           -4.9562    -4.0594    -0.8625 H       
  26 H26           -2.3089    -4.5336    -0.0002 H       
  27 H27            0.5123    -0.3556    -0.8948 H       
  28 H28            0.5293    -0.3651     0.8851 H       
  29 H29           -4.3859    -6.0899     2.1438 H       
  30 H30           -4.4374    -6.0671    -2.1207 H       
  31 H31           -4.3520    -8.5520     2.1303 H       
  32 H32           -4.4040    -8.5292    -2.1343 H       
  33 H33            1.1793     3.1090     0.0075 H       
  34 H34            1.8338     1.7047     0.8837 H       
  35 H35            1.8168     1.7143    -0.8961 H       
@<TRIPOS>BOND
   1    1   18 1
   2    2   18 1
   3    3   18 1
   4    4   12 1
   5    4   19 1
   6    5   11 2
   7    6    9 1
   8    6   11 am
   9    6   26 1
  10    7    8 1
  11    7   11 1
  12    7   20 1
  13    7   21 1
  14    8   12 1
  15    8   22 1
  16    8   23 1
  17    9   10 1
  18    9   24 1
  19    9   25 1
  20   10   13 ar
  21   10   14 ar
  22   12   27 1
  23   12   28 1
  24   13   16 ar
  25   13   29 1
  26   14   17 ar
  27   14   30 1
  28   15   16 ar
  29   15   17 ar
  30   15   18 1
  31   16   31 1
  32   17   32 1
  33   19   33 1
  34   19   34 1
  35   19   35 1

#	End of record

