#	Name: ASD01840108
#	Creating user name:	WinNT
#	Creation time:	15. 06. 2019 19:37

#	Modifying user name:	WinNT
#	Modification time:	15. 06. 2019 19:37

#	Program:	/corina/corina34_cracker 3.40 0067  02.08.2006

@<TRIPOS>MOLECULE
ASD01840108
  42   44    0    0    0
SMALL
NO_CHARGES


@<TRIPOS>ATOM
   1 C1             0.2611     1.7552    -0.9983 C.ar    
   2 C2             0.3842     0.5320    -1.6199 C.ar    
   3 N3             1.4991    -0.1677    -1.4969 N.ar    
   4 N4             2.5000     0.2427    -0.8113 N.ar    
   5 C5             1.3546     2.2266    -0.2366 C.ar    
   6 C6             1.5105     3.4571     0.5167 C.2     
   7 C7             2.4928     1.4121    -0.1671 C.ar    
   8 S8             3.7245     2.1819     0.8231 S.3     
   9 C9             2.7119     3.5785     1.1338 C.2     
  10 C10           -0.7560    -0.0105    -2.4424 C.3     
  11 C11           -0.9999     2.5696    -1.1316 C.3     
  12 C12            3.1106     4.7241     1.9502 C.2     
  13 O13            2.3410     5.6535     2.1122 O.2     
  14 N14            4.3301     4.7513     2.5234 N.am    
  15 C15            4.7295     5.8992     3.3414 C.3     
  16 C16            6.1273     5.6832     3.8617 C.ar    
  17 C17            6.3220     5.0406     5.0707 C.ar    
  18 C18            7.2123     6.1227     3.1269 C.ar    
  19 C19            8.4958     5.9262     3.6010 C.ar    
  20 C20            8.6954     5.2876     4.8151 C.ar    
  21 C21            7.6038     4.8417     5.5502 C.ar    
  22 O22            9.9570     5.0931     5.2830 O.3     
  23 C23           11.0310     5.5725     4.4714 C.3     
  24 F24            7.7945     4.2148     6.7316 F       
  25 N25            0.5180     4.4245     0.5980 N.pl3   
  26 H26           -0.6491     0.3211    -3.4752 H       
  27 H27           -0.7431    -1.0999    -2.4074 H       
  28 H28           -1.7007     0.3547    -2.0395 H       
  29 H29           -1.6441     2.3851    -0.2720 H       
  30 H30           -0.7455     3.6287    -1.1744 H       
  31 H31           -1.5219     2.2841    -2.0449 H       
  32 H32            4.9433     4.0109     2.3944 H       
  33 H33            4.7035     6.8043     2.7347 H       
  34 H34            4.0417     6.0043     4.1805 H       
  35 H35            5.4727     4.6942     5.6409 H       
  36 H36            7.0572     6.6199     2.1809 H       
  37 H37            9.3427     6.2699     3.0257 H       
  38 H38           11.9808     5.3537     4.9594 H       
  39 H39           10.9999     5.0800     3.4995 H       
  40 H40           10.9316     6.6495     4.3363 H       
  41 H41           -0.4028     4.1924     0.3999 H       
  42 H42            0.7453     5.3324     0.8529 H       
@<TRIPOS>BOND
   1    1    2 ar
   2    1    5 ar
   3    1   11 1
   4    2    3 ar
   5    2   10 1
   6    3    4 ar
   7    4    7 ar
   8    5    7 ar
   9    5    6 1
  10    6    9 2
  11    6   25 1
  12    7    8 1
  13    8    9 1
  14    9   12 1
  15   10   26 1
  16   10   27 1
  17   10   28 1
  18   11   29 1
  19   11   30 1
  20   11   31 1
  21   12   13 2
  22   12   14 am
  23   14   15 1
  24   14   32 1
  25   15   16 1
  26   15   33 1
  27   15   34 1
  28   16   18 ar
  29   16   17 ar
  30   17   21 ar
  31   17   35 1
  32   18   19 ar
  33   18   36 1
  34   19   20 ar
  35   19   37 1
  36   20   21 ar
  37   20   22 1
  38   21   24 1
  39   22   23 1
  40   23   38 1
  41   23   39 1
  42   23   40 1
  43   25   41 1
  44   25   42 1

#	End of record

