#	Name: ASD06170329
#	Creating user name:	WinNT
#	Creation time:	15. 06. 2019 21:05

#	Modifying user name:	WinNT
#	Modification time:	15. 06. 2019 21:05

#	Program:	/corina/corina34_cracker 3.40 0067  02.08.2006

@<TRIPOS>MOLECULE
ASD06170329
  67   71    0    0    0
SMALL
NO_CHARGES


@<TRIPOS>ATOM
   1 N1            -0.0596     1.3831     0.0631 N.am    
   2 N2            -0.0833     0.0267     0.4009 N.pl3   
   3 C3             1.1611    -0.4840     0.3358 C.2     
   4 C4             2.0283     0.5213    -0.0450 C.2     
   5 C5             1.2125     1.7336    -0.2185 C.2     
   6 C6             3.4786     0.4035    -0.2386 C.2     
   7 O7             4.0314    -0.6658    -0.0599 O.2     
   8 N8             4.1979     1.4796    -0.6141 N.am    
   9 C9            -1.2836    -0.7271     0.7713 C.3     
  10 C10            1.5430    -1.9120     0.6290 C.3     
  11 C11            5.5965     1.4138    -0.6365 C.ar    
  12 C12            6.2310     0.1971    -0.8482 C.ar    
  13 C13            7.6120     0.1331    -0.8701 C.ar    
  14 C14            8.3634     1.2863    -0.6802 C.ar    
  15 C15            7.7284     2.5010    -0.4689 C.ar    
  16 C16            6.3490     2.5664    -0.4526 C.ar    
  17 O17            9.7217     1.2238    -0.7012 O.3     
  18 N18           11.5595     0.6959    -4.3557 N.ar    
  19 C19           12.3335     0.8924    -3.2820 C.ar    
  20 C20           11.7421     1.0776    -2.0094 C.ar    
  21 C21           10.3325     1.0514    -1.8993 C.ar    
  22 C22            9.5963     0.8440    -3.0516 C.ar    
  23 C23           10.2509     0.6692    -4.2651 C.ar    
  24 O24            1.6075     2.8354    -0.5513 O.2     
  25 C25           -1.1696     2.2330     0.0185 C.ar    
  26 C26           12.5569     1.2822    -0.8870 C.ar    
  27 C27           13.9155     1.3006    -1.0336 C.ar    
  28 C28           14.5002     1.1183    -2.2898 C.ar    
  29 C29           13.7347     0.9178    -3.3962 C.ar    
  30 C30           -1.9147    -1.3307    -0.4850 C.3     
  31 C31           -3.2340    -2.0120    -0.1160 C.3     
  32 O32           -1.0231    -2.2936    -1.0503 O.3     
  33 O33           14.7065     1.4989     0.0538 O.3     
  34 C34           16.1188     1.5075    -0.1641 C.3     
  35 F35            8.2305    -1.0503    -1.0755 F       
  36 C36           -2.1086     2.2055     1.0415 C.ar    
  37 C37           -3.2033     3.0463     0.9947 C.ar    
  38 C38           -3.3649     3.9149    -0.0691 C.ar    
  39 C39           -2.4321     3.9444    -1.0894 C.ar    
  40 C40           -1.3322     3.1102    -1.0458 C.ar    
  41 H41            3.7468     2.2996    -0.8689 H       
  42 H42           -1.0124    -1.5260     1.4614 H       
  43 H43           -1.9983    -0.0589     1.2519 H       
  44 H44            1.4836    -2.4995    -0.2872 H       
  45 H45            2.5617    -1.9436     1.0155 H       
  46 H46            0.8600    -2.3258     1.3709 H       
  47 H47            5.6463    -0.6989    -0.9953 H       
  48 H48            8.3129     3.3971    -0.3210 H       
  49 H49            5.8553     3.5136    -0.2927 H       
  50 H50            8.5175     0.8176    -3.0086 H       
  51 H51            9.6661     0.5076    -5.1586 H       
  52 H52           12.1136     1.4247     0.0874 H       
  53 H53           15.5760     1.1372    -2.3836 H       
  54 H54           14.2019     0.7778    -4.3597 H       
  55 H55           -2.1046    -0.5407    -1.2116 H       
  56 H56           -3.9141    -1.2775     0.3153 H       
  57 H57           -3.6836    -2.4420    -1.0110 H       
  58 H58           -3.0441    -2.8020     0.6107 H       
  59 H59           -0.8093    -3.0273    -0.4577 H       
  60 H60           16.4281     0.5488    -0.5804 H       
  61 H61           16.3739     2.3056    -0.8613 H       
  62 H62           16.6316     1.6748     0.7831 H       
  63 H63           -1.9832     1.5271     1.8724 H       
  64 H64           -3.9340     3.0251     1.7897 H       
  65 H65           -4.2218     4.5714    -0.1033 H       
  66 H66           -2.5614     4.6237    -1.9190 H       
  67 H67           -0.6039     3.1338    -1.8430 H       
@<TRIPOS>BOND
   1    1    2 1
   2    1    5 am
   3    1   25 1
   4    2    3 1
   5    2    9 1
   6    3    4 2
   7    3   10 1
   8    4    5 1
   9    4    6 1
  10    5   24 2
  11    6    7 2
  12    6    8 am
  13    8   11 1
  14    8   41 1
  15    9   30 1
  16    9   42 1
  17    9   43 1
  18   10   44 1
  19   10   45 1
  20   10   46 1
  21   11   12 ar
  22   11   16 ar
  23   12   13 ar
  24   12   47 1
  25   13   14 ar
  26   13   35 1
  27   14   15 ar
  28   14   17 1
  29   15   16 ar
  30   15   48 1
  31   16   49 1
  32   17   21 1
  33   18   19 ar
  34   18   23 ar
  35   19   20 ar
  36   19   29 ar
  37   20   21 ar
  38   20   26 ar
  39   21   22 ar
  40   22   23 ar
  41   22   50 1
  42   23   51 1
  43   25   36 ar
  44   25   40 ar
  45   26   27 ar
  46   26   52 1
  47   27   28 ar
  48   27   33 1
  49   28   29 ar
  50   28   53 1
  51   29   54 1
  52   30   31 1
  53   30   32 1
  54   30   55 1
  55   31   56 1
  56   31   57 1
  57   31   58 1
  58   32   59 1
  59   33   34 1
  60   34   60 1
  61   34   61 1
  62   34   62 1
  63   36   37 ar
  64   36   63 1
  65   37   38 ar
  66   37   64 1
  67   38   39 ar
  68   38   65 1
  69   39   40 ar
  70   39   66 1
  71   40   67 1

#	End of record

