#	Name: ASD07301021
#	Creating user name:	WinNT
#	Creation time:	15. 06. 2019 21:10

#	Modifying user name:	WinNT
#	Modification time:	15. 06. 2019 21:10

#	Program:	/corina/corina34_cracker 3.40 0067  02.08.2006

@<TRIPOS>MOLECULE
ASD07301021
  32   33    0    0    0
SMALL
NO_CHARGES


@<TRIPOS>ATOM
   1 C1            -0.0178     1.4649     0.0101 C.2     
   2 C2             0.0021    -0.0041     0.0020 C.2     
   3 C3             1.2770    -0.6367    -0.0136 C.2     
   4 C4             2.3784     0.1588    -0.0198 C.2     
   5 N5             2.2582     1.5097    -0.0114 N.pl3   
   6 N6             1.1291     2.1160     0.0026 N.2     
   7 C7            -1.2972     2.1982     0.0202 C.2     
   8 O8            -2.3476     1.5874     0.0219 O.2     
   9 O9            -1.3014     3.5458     0.0275 O.3     
  10 O10           -1.0316    -0.6549     0.0088 O.2     
  11 O11            1.3889    -1.9916    -0.0215 O.3     
  12 C12            2.7111    -2.5333    -0.0370 C.3     
  13 C13            3.4258     2.2803    -0.0184 C.ar    
  14 C14            3.6360     3.2356     0.9720 C.ar    
  15 C15            4.7901     3.9958     0.9630 C.ar    
  16 C16            5.7380     3.8062    -0.0326 C.ar    
  17 C17            5.5281     2.8540    -1.0202 C.ar    
  18 C18            4.3790     2.0889    -1.0102 C.ar    
  19 O19            6.8727     4.5540    -0.0409 O.3     
  20 C20            7.8053     4.3062    -1.0949 C.3     
  21 F21            7.1893     4.5442    -2.3282 F       
  22 F22            8.9071     5.1565    -0.9521 F       
  23 F23            8.2326     2.9754    -1.0361 F       
  24 F24            2.7124     3.4199     1.9406 F       
  25 H25            3.3608    -0.2897    -0.0312 H       
  26 H26           -2.1644     3.9821     0.0340 H       
  27 H27            2.6578    -3.6220    -0.0420 H       
  28 H28            3.2335    -2.1910    -0.9304 H       
  29 H29            3.2508    -2.2000     0.8494 H       
  30 H30            4.9541     4.7376     1.7307 H       
  31 H31            6.2667     2.7080    -1.7945 H       
  32 H32            4.2190     1.3449    -1.7766 H       
@<TRIPOS>BOND
   1    1    2 1
   2    1    6 2
   3    1    7 1
   4    2    3 1
   5    2   10 2
   6    3    4 2
   7    3   11 1
   8    4    5 1
   9    4   25 1
  10    5    6 1
  11    5   13 1
  12    7    8 2
  13    7    9 1
  14    9   26 1
  15   11   12 1
  16   12   27 1
  17   12   28 1
  18   12   29 1
  19   13   14 ar
  20   13   18 ar
  21   14   15 ar
  22   14   24 1
  23   15   16 ar
  24   15   30 1
  25   16   17 ar
  26   16   19 1
  27   17   18 ar
  28   17   31 1
  29   18   32 1
  30   19   20 1
  31   20   21 1
  32   20   22 1
  33   20   23 1

#	End of record

