#	Name: ASD08150008
#	Creating user name:	WinNT
#	Creation time:	15. 06. 2019 21:15

#	Modifying user name:	WinNT
#	Modification time:	15. 06. 2019 21:15

#	Program:	/corina/corina34_cracker 3.40 0067  02.08.2006

@<TRIPOS>MOLECULE
ASD08150008
  40   41    0    0    0
SMALL
NO_CHARGES


@<TRIPOS>ATOM
   1 O1            -0.0161     1.3330     0.0094 O.3     
   2 C2             0.0021    -0.0041     0.0020 C.2     
   3 N3             1.2341    -0.5298    -0.0131 N.am    
   4 C4             2.2199     0.5610    -0.0177 C.3     
   5 C5             1.3491     1.8402    -0.0009 C.3     
   6 C6             1.6395     2.5476     1.3379 C.3     
   7 C7             3.0416     2.0330     1.7466 C.3     
   8 C8             2.9998     0.5472     1.3122 C.3     
   9 O9            -1.0072    -0.6807     0.0089 O.2     
  10 O10            1.6600     3.9653     1.1597 O.3     
  11 Si11           1.1915     4.8063     2.4763 Si      
  12 C12           -0.5536     4.3340     2.9262 C.3     
  13 C13            2.3275     4.4147     3.9000 C.3     
  14 C14            1.2654     6.6307     2.1066 C.3     
  15 C15            0.3325     6.9524     0.9373 C.3     
  16 C16            0.8259     7.4196     3.3416 C.3     
  17 C17            2.6986     7.0186     1.7371 C.3     
  18 H18            1.4423    -1.4771    -0.0195 H       
  19 H19            2.8720     0.5195    -0.8901 H       
  20 H20            1.5411     2.4776    -0.8640 H       
  21 H21            0.8977     2.2673     2.0857 H       
  22 H22            3.8224     2.5709     1.2089 H       
  23 H23            3.1849     2.1166     2.8239 H       
  24 H24            2.4750    -0.0527     2.0557 H       
  25 H25            4.0096     0.1667     1.1579 H       
  26 H26           -0.5969     3.2666     3.1425 H       
  27 H27           -0.8667     4.8960     3.8061 H       
  28 H28           -1.2182     4.5632     2.0932 H       
  29 H29            3.3485     4.6910     3.6368 H       
  30 H30            2.0143     4.9767     4.7799 H       
  31 H31            2.2842     3.3472     4.1163 H       
  32 H32           -0.6886     6.6761     1.2006 H       
  33 H33            0.3757     8.0198     0.7210 H       
  34 H34            0.6456     6.3903     0.0575 H       
  35 H35            1.4905     7.1905     4.1746 H       
  36 H36            0.8691     8.4870     3.1253 H       
  37 H37           -0.1951     7.1433     3.6049 H       
  38 H38            3.0117     6.4566     0.8572 H       
  39 H39            2.7418     8.0860     1.5208 H       
  40 H40            3.3632     6.7894     2.5701 H       
@<TRIPOS>BOND
   1    1    2 1
   2    1    5 1
   3    2    3 am
   4    2    9 2
   5    3    4 1
   6    3   18 1
   7    4    5 1
   8    4    8 1
   9    4   19 1
  10    5    6 1
  11    5   20 1
  12    6    7 1
  13    6   10 1
  14    6   21 1
  15    7    8 1
  16    7   22 1
  17    7   23 1
  18    8   24 1
  19    8   25 1
  20   10   11 1
  21   11   12 1
  22   11   13 1
  23   11   14 1
  24   12   26 1
  25   12   27 1
  26   12   28 1
  27   13   29 1
  28   13   30 1
  29   13   31 1
  30   14   15 1
  31   14   17 1
  32   14   16 1
  33   15   32 1
  34   15   33 1
  35   15   34 1
  36   16   35 1
  37   16   36 1
  38   16   37 1
  39   17   38 1
  40   17   39 1
  41   17   40 1

#	End of record

