#	Name: ASD01410106
#	Creating user name:	WinNT
#	Creation time:	15. 06. 2019 19:16

#	Modifying user name:	WinNT
#	Modification time:	15. 06. 2019 19:16

#	Program:	/corina/corina34_cracker 3.40 0067  02.08.2006

@<TRIPOS>MOLECULE
ASD01410106
  75   78    0    0    0
SMALL
NO_CHARGES


@<TRIPOS>ATOM
   1 C1            -0.0169     1.3986     0.0097 C.ar    
   2 C2             0.0021    -0.0041     0.0020 C.ar    
   3 C3            -1.1621    -0.7093     0.0089 C.ar    
   4 C4            -2.3912    -0.0347     0.0242 C.ar    
   5 C5            -2.4204     1.3751     0.0326 C.ar    
   6 C6            -1.2305     2.0850     0.0308 C.ar    
   7 C7            -3.7375    -0.4722     0.0343 C.2     
   8 C8            -4.5317     0.6283     0.0481 C.2     
   9 N9            -3.7465     1.7566     0.0472 N.pl3   
  10 C10           -6.0103     0.6156     0.0618 C.ar    
  11 C11           -6.7116    -0.2388    -0.7898 C.ar    
  12 C12           -8.0897     1.4373     0.9387 C.ar    
  13 C13           -6.7104     1.4540     0.9308 C.ar    
  14 C14           -4.2054    -1.9047     0.0301 C.3     
  15 C15           -3.6896    -2.6060    -1.2281 C.3     
  16 C16           -4.1647    -4.0603    -1.2324 C.3     
  17 C17           -3.6262    -4.7765     0.0078 C.3     
  18 C18           -4.1420    -4.0752     1.2659 C.3     
  19 C19           -3.6669    -2.6208     1.2702 C.3     
  20 C20            1.2513     2.1499     0.0017 C.2     
  21 O21            2.4258     1.4892    -0.0131 O.3     
  22 C22           -4.2368     3.1371     0.0604 C.3     
  23 C23           -4.3909     3.6018     1.4856 C.2     
  24 N24           -4.8320     4.8489     1.7439 N.am    
  25 O25            1.2377     3.3650     0.0083 O.2     
  26 O26           -4.1180     2.8536     2.4003 O.2     
  27 C27           -8.0913    -0.2458    -0.7721 C.ar    
  28 C28           -8.7792     0.5921     0.0872 C.ar    
  29 C29           -4.9818     5.3006     3.1294 C.3     
  30 C30           -5.1616     5.7527     0.6390 C.3     
  31 C31           -8.8472     2.3415     1.8766 C.3     
  32 N32           -9.1109     3.6252     1.2128 N.3     
  33 C33          -10.0456     4.4419     1.9985 C.3     
  34 C34           -7.8605     4.3533     0.9593 C.3     
  35 C35          -10.2951     5.7678     1.2770 C.3     
  36 C36          -11.3692     3.6910     2.1579 C.3     
  37 H37            0.9465    -0.5277    -0.0098 H       
  38 H38           -1.1391    -1.7891     0.0021 H       
  39 H39           -1.2430     3.1649     0.0371 H       
  40 H40           -6.1757    -0.8930    -1.4617 H       
  41 H41           -6.1734     2.1141     1.5959 H       
  42 H42           -5.2951    -1.9310     0.0398 H       
  43 H43           -4.0732    -2.0958    -2.1116 H       
  44 H44           -2.5999    -2.5797    -1.2378 H       
  45 H45           -5.2543    -4.0866    -1.2227 H       
  46 H46           -3.7972    -4.5600    -2.1287 H       
  47 H47           -3.9646    -5.8126     0.0047 H       
  48 H48           -2.5365    -4.7502    -0.0019 H       
  49 H49           -5.2317    -4.1015     1.2756 H       
  50 H50           -3.7584    -4.5854     2.1494 H       
  51 H51           -2.5773    -2.5945     1.2605 H       
  52 H52           -4.0344    -2.1212     2.1666 H       
  53 H53            3.2308     2.0250    -0.0179 H       
  54 H54           -3.5249     3.7805    -0.4566 H       
  55 H55           -5.2021     3.1846    -0.4437 H       
  56 H56           -8.6353    -0.9066    -1.4307 H       
  57 H57           -9.8591     0.5830     0.0970 H       
  58 H58           -4.0506     5.7567     3.4655 H       
  59 H59           -5.7869     6.0331     3.1877 H       
  60 H60           -5.2193     4.4482     3.7658 H       
  61 H61           -6.2117     5.6328     0.3725 H       
  62 H62           -4.9799     6.7828     0.9457 H       
  63 H63           -4.5385     5.5150    -0.2231 H       
  64 H64           -9.7926     1.8724     2.1490 H       
  65 H65           -8.2541     2.5121     2.7750 H       
  66 H66           -9.6185     4.6381     2.9820 H       
  67 H67           -7.2148     3.7541     0.3173 H       
  68 H68           -8.0846     5.2998     0.4673 H       
  69 H69           -7.3543     4.5464     1.9051 H       
  70 H70          -10.7222     5.5715     0.2935 H       
  71 H71          -10.9887     6.3737     1.8600 H       
  72 H72           -9.3522     6.3027     1.1635 H       
  73 H73          -11.7962     3.4948     1.1744 H       
  74 H74          -11.1914     2.7464     2.6719 H       
  75 H75          -12.0627     4.2970     2.7408 H       
@<TRIPOS>BOND
   1    1    2 ar
   2    1   20 1
   3    1    6 ar
   4    2    3 ar
   5    2   37 1
   6    3    4 ar
   7    3   38 1
   8    4    5 ar
   9    4    7 1
  10    5    6 ar
  11    5    9 1
  12    6   39 1
  13    7    8 2
  14    7   14 1
  15    8    9 1
  16    8   10 1
  17    9   22 1
  18   10   11 ar
  19   10   13 ar
  20   11   27 ar
  21   11   40 1
  22   12   13 ar
  23   12   31 1
  24   12   28 ar
  25   13   41 1
  26   14   15 1
  27   14   19 1
  28   14   42 1
  29   15   16 1
  30   15   43 1
  31   15   44 1
  32   16   17 1
  33   16   45 1
  34   16   46 1
  35   17   18 1
  36   17   47 1
  37   17   48 1
  38   18   19 1
  39   18   49 1
  40   18   50 1
  41   19   51 1
  42   19   52 1
  43   20   21 1
  44   20   25 2
  45   21   53 1
  46   22   23 1
  47   22   54 1
  48   22   55 1
  49   23   24 am
  50   23   26 2
  51   24   29 1
  52   24   30 1
  53   27   28 ar
  54   27   56 1
  55   28   57 1
  56   29   58 1
  57   29   59 1
  58   29   60 1
  59   30   61 1
  60   30   62 1
  61   30   63 1
  62   31   32 1
  63   31   64 1
  64   31   65 1
  65   32   33 1
  66   32   34 1
  67   33   35 1
  68   33   36 1
  69   33   66 1
  70   34   67 1
  71   34   68 1
  72   34   69 1
  73   35   70 1
  74   35   71 1
  75   35   72 1
  76   36   73 1
  77   36   74 1
  78   36   75 1

#	End of record

