#	Name: ASD01150859
#	Creating user name:	WinNT
#	Creation time:	15. 06. 2019 19:05

#	Modifying user name:	WinNT
#	Modification time:	15. 06. 2019 19:05

#	Program:	/corina/corina34_cracker 3.40 0067  02.08.2006

@<TRIPOS>MOLECULE
ASD01150859
  51   52    0    0    0
SMALL
NO_CHARGES


@<TRIPOS>ATOM
   1 C1            -0.0169     1.3920     0.0097 C.ar    
   2 C2             0.0021    -0.0041     0.0020 C.ar    
   3 C3             1.2237    -0.6801    -0.0133 C.ar    
   4 C4             2.4034     0.0338    -0.0207 C.ar    
   5 C5             2.3782     1.4187    -0.0130 C.ar    
   6 C6             1.1695     2.0949     0.0021 C.ar    
   7 C7            -1.2656    -0.7631     0.0105 C.2     
   8 N8            -1.2442    -2.1107     0.0031 N.am    
   9 O9            -2.3281    -0.1720     0.0243 O.2     
  10 C10           -2.4484    -2.8317     0.0112 C.2     
  11 N11           -3.6693    -2.3096     0.0256 N.2     
  12 C12           -4.5645    -3.2807     0.0295 C.2     
  13 N13           -3.9056    -4.4883     0.0171 N.pl3   
  14 C14           -2.5700    -4.2132    -0.0006 C.2     
  15 C15           -4.5218    -5.8174     0.0165 C.3     
  16 S16           -1.2544    -5.3852    -0.0220 S.3     
  17 Cl17           3.8676     2.3105    -0.0219 Cl      
  18 C18           -4.7498    -6.2732    -1.4262 C.3     
  19 C19           -5.3933    -7.6613    -1.4268 C.3     
  20 C20           -6.7881    -7.5770    -0.8037 C.3     
  21 C21           -5.5072    -8.1700    -2.8653 C.3     
  22 C22           -1.0443    -5.5893    -1.8081 C.3     
  23 C23           -6.0165    -3.1017     0.0449 C.2     
  24 O24           -6.7492    -4.0732     0.0476 O.2     
  25 O25           -6.5432    -1.8591     0.0562 O.3     
  26 C26           -7.9686    -1.7588     0.0710 C.3     
  27 C27           -8.3760    -0.2841     0.0822 C.3     
  28 H28           -0.9588     1.9204     0.0170 H       
  29 H29            1.2446    -1.7598    -0.0189 H       
  30 H30            3.3490    -0.4879    -0.0322 H       
  31 H31            1.1561     3.1748     0.0081 H       
  32 H32           -0.3966    -2.5822    -0.0079 H       
  33 H33           -3.8624    -6.5238     0.5208 H       
  34 H34           -5.4772    -5.7752     0.5394 H       
  35 H35           -5.4091    -5.5668    -1.9305 H       
  36 H36           -3.7943    -6.3154    -1.9492 H       
  37 H37           -4.7769    -8.3478    -0.8464 H       
  38 H38           -6.7070    -7.2147     0.2210 H       
  39 H39           -7.4045    -6.8905    -1.3842 H       
  40 H40           -7.2466    -8.5659    -0.8042 H       
  41 H41           -4.5135    -8.2300    -3.3092 H       
  42 H42           -5.9656    -9.1588    -2.8658 H       
  43 H43           -6.1235    -7.4834    -3.4457 H       
  44 H44           -0.2441    -6.3039    -2.0005 H       
  45 H45           -1.9731    -5.9580    -2.2434 H       
  46 H46           -0.7893    -4.6289    -2.2560 H       
  47 H47           -8.3760    -2.2416    -0.8173 H       
  48 H48           -8.3582    -2.2501     0.9626 H       
  49 H49           -7.9686     0.1987     0.9704 H       
  50 H50           -7.9864     0.2072    -0.8094 H       
  51 H51           -9.4633    -0.2076     0.0934 H       
@<TRIPOS>BOND
   1    1    2 ar
   2    1    6 ar
   3    1   28 1
   4    2    3 ar
   5    2    7 1
   6    3    4 ar
   7    3   29 1
   8    4    5 ar
   9    4   30 1
  10    5    6 ar
  11    5   17 1
  12    6   31 1
  13    7    8 am
  14    7    9 2
  15    8   10 1
  16    8   32 1
  17   10   11 1
  18   10   14 2
  19   11   12 2
  20   12   13 1
  21   12   23 1
  22   13   14 1
  23   13   15 1
  24   14   16 1
  25   15   18 1
  26   15   33 1
  27   15   34 1
  28   16   22 1
  29   18   19 1
  30   18   35 1
  31   18   36 1
  32   19   20 1
  33   19   21 1
  34   19   37 1
  35   20   38 1
  36   20   39 1
  37   20   40 1
  38   21   41 1
  39   21   42 1
  40   21   43 1
  41   22   44 1
  42   22   45 1
  43   22   46 1
  44   23   24 2
  45   23   25 1
  46   25   26 1
  47   26   27 1
  48   26   47 1
  49   26   48 1
  50   27   49 1
  51   27   50 1
  52   27   51 1

#	End of record

