#	Name: ASD01140649
#	Creating user name:	WinNT
#	Creation time:	15. 06. 2019 19:01

#	Modifying user name:	WinNT
#	Modification time:	15. 06. 2019 19:01

#	Program:	/corina/corina34_cracker 3.40 0067  02.08.2006

@<TRIPOS>MOLECULE
ASD01140649
  45   47    0    0    0
SMALL
NO_CHARGES


@<TRIPOS>ATOM
   1 N1            -0.0905     1.1109    -0.0158 N.ar    
   2 N2             0.1194    -0.1136    -0.3388 N.ar    
   3 C3             1.3349    -0.6651    -0.3593 C.ar    
   4 C4             2.4589     0.0997    -0.0176 C.ar    
   5 C5             2.2367     1.4531     0.3405 C.ar    
   6 C6             3.2870     2.3053     0.6983 C.ar    
   7 C7             3.0268     3.6025     1.0358 C.ar    
   8 C8             1.7286     4.0954     1.0304 C.ar    
   9 C9             0.6623     3.2814     0.6817 C.ar    
  10 C10            0.9060     1.9351     0.3285 C.ar    
  11 C11            1.4952    -2.0794    -0.7411 C.2     
  12 O12            2.6083    -2.5552    -0.8585 O.2     
  13 N13            0.4083    -2.8456    -0.9603 N.am    
  14 C14            0.5677    -4.2516    -1.3399 C.3     
  15 C15           -0.8107    -4.8887    -1.5271 C.3     
  16 C16           -0.6443    -6.3570    -1.9235 C.3     
  17 C17           -0.7181     3.8169     0.6798 C.ar    
  18 C18           -1.2441     4.3975    -0.4761 C.ar    
  19 C19           -2.5334     4.8955    -0.4709 C.ar    
  20 C20           -3.3041     4.8210     0.6759 C.ar    
  21 C21           -2.7926     4.2487     1.8252 C.ar    
  22 C22           -1.5042     3.7388     1.8343 C.ar    
  23 O23           -1.0039     3.1710     2.9623 O.3     
  24 C24           -1.8641     3.1263     4.1025 C.3     
  25 F25           -0.4940     4.4727    -1.5973 F       
  26 N26            3.7260    -0.4414    -0.0290 N.pl3   
  27 H27            4.3024     1.9375     0.7079 H       
  28 H28            3.8424     4.2546     1.3113 H       
  29 H29            1.5476     5.1250     1.3015 H       
  30 H30           -0.4795    -2.4661    -0.8667 H       
  31 H31            1.1270    -4.3148    -2.2733 H       
  32 H32            1.1089    -4.7806    -0.5554 H       
  33 H33           -1.3700    -4.8255    -0.5936 H       
  34 H34           -1.3520    -4.3597    -2.3115 H       
  35 H35           -1.6263    -6.8109    -2.0568 H       
  36 H36           -0.0850    -6.4202    -2.8569 H       
  37 H37           -0.1030    -6.8860    -1.1390 H       
  38 H38           -2.9405     5.3446    -1.3647 H       
  39 H39           -4.3106     5.2125     0.6728 H       
  40 H40           -3.3999     4.1947     2.7167 H       
  41 H41           -2.7601     2.5550     3.8596 H       
  42 H42           -1.3428     2.6491     4.9324 H       
  43 H43           -2.1455     4.1407     4.3853 H       
  44 H44            3.8435    -1.4026     0.0269 H       
  45 H45            4.5006     0.1390    -0.0929 H       
@<TRIPOS>BOND
   1    1    2 ar
   2    1   10 ar
   3    2    3 ar
   4    3    4 ar
   5    3   11 1
   6    4    5 ar
   7    4   26 1
   8    5    6 ar
   9    5   10 ar
  10    6    7 ar
  11    6   27 1
  12    7    8 ar
  13    7   28 1
  14    8    9 ar
  15    8   29 1
  16    9   10 ar
  17    9   17 1
  18   11   12 2
  19   11   13 am
  20   13   14 1
  21   13   30 1
  22   14   15 1
  23   14   31 1
  24   14   32 1
  25   15   16 1
  26   15   33 1
  27   15   34 1
  28   16   35 1
  29   16   36 1
  30   16   37 1
  31   17   18 ar
  32   17   22 ar
  33   18   19 ar
  34   18   25 1
  35   19   20 ar
  36   19   38 1
  37   20   21 ar
  38   20   39 1
  39   21   22 ar
  40   21   40 1
  41   22   23 1
  42   23   24 1
  43   24   41 1
  44   24   42 1
  45   24   43 1
  46   26   44 1
  47   26   45 1

#	End of record

