#	Name: ASD01914448
#	Creating user name:	WinNT
#	Creation time:	15. 06. 2019 20:03

#	Modifying user name:	WinNT
#	Modification time:	15. 06. 2019 20:03

#	Program:	/corina/corina34_cracker 3.40 0067  02.08.2006

@<TRIPOS>MOLECULE
ASD01914448
  40   43    0    0    0
SMALL
NO_CHARGES


@<TRIPOS>ATOM
   1 C1            -0.0168     1.3902     0.0097 C.ar    
   2 C2             0.0021    -0.0041     0.0020 C.ar    
   3 N3             1.1281     2.0669     0.0024 N.ar    
   4 N4             1.1562    -0.6463    -0.0125 N.ar    
   5 C5             2.2907     0.0310    -0.0196 C.ar    
   6 C6             2.2753     1.4182    -0.0120 C.ar    
   7 C7            -1.3085     2.1156     0.0197 C.2     
   8 O8            -2.3536     1.4956     0.0213 O.2     
   9 N9            -1.3245     3.4633     0.0271 N.am    
  10 C10           -2.6019     4.1806     0.0371 C.3     
  11 C11           -2.3402     5.6880     0.0440 C.3     
  12 C12           -3.6742     6.4372     0.0544 C.3     
  13 C13           -4.4661     6.0513     1.3053 C.3     
  14 C14           -4.7278     4.5439     1.2984 C.3     
  15 C15           -5.5315     4.1715     0.0509 C.3     
  16 C16           -4.7396     4.5574    -1.2000 C.3     
  17 C17           -3.4056     3.8083    -1.2104 C.3     
  18 C18           -4.4779     6.0649    -1.1931 C.3     
  19 C19           -3.3938     3.7947     1.2880 C.3     
  20 N20           -3.4229     7.8846     0.0611 N.3     
  21 H21           -0.9252    -0.5578     0.0083 H       
  22 H22            3.2328    -0.4969    -0.0315 H       
  23 H23            3.2051     1.9676    -0.0183 H       
  24 H24           -0.4903     3.9582     0.0259 H       
  25 H25           -1.7676     5.9533     0.9328 H       
  26 H26           -1.7760     5.9630    -0.8471 H       
  27 H27           -3.8935     6.3166     2.1941 H       
  28 H28           -5.4165     6.5850     1.3127 H       
  29 H29           -5.2920     4.2689     2.1896 H       
  30 H30           -5.7180     3.0976     0.0459 H       
  31 H31           -6.4819     4.7052     0.0583 H       
  32 H32           -5.3122     4.2922    -2.0888 H       
  33 H33           -2.8414     4.0832    -2.1016 H       
  34 H34           -3.5921     2.7343    -1.2154 H       
  35 H35           -5.4283     6.5986    -1.1857 H       
  36 H36           -3.9137     6.3398    -2.0843 H       
  37 H37           -3.5802     2.7208     1.2830 H       
  38 H38           -2.8212     4.0600     2.1767 H       
  39 H39           -4.2891     8.4019     0.0680 H       
  40 H40           -2.8390     8.1466     0.8411 H       
@<TRIPOS>BOND
   1    1    2 ar
   2    1    3 ar
   3    1    7 1
   4    2    4 ar
   5    2   21 1
   6    3    6 ar
   7    4    5 ar
   8    5    6 ar
   9    5   22 1
  10    6   23 1
  11    7    8 2
  12    7    9 am
  13    9   10 1
  14    9   24 1
  15   10   11 1
  16   10   17 1
  17   10   19 1
  18   11   12 1
  19   11   25 1
  20   11   26 1
  21   12   13 1
  22   12   18 1
  23   12   20 1
  24   13   14 1
  25   13   27 1
  26   13   28 1
  27   14   15 1
  28   14   19 1
  29   14   29 1
  30   15   16 1
  31   15   30 1
  32   15   31 1
  33   16   17 1
  34   16   18 1
  35   16   32 1
  36   17   33 1
  37   17   34 1
  38   18   35 1
  39   18   36 1
  40   19   37 1
  41   19   38 1
  42   20   39 1
  43   20   40 1

#	End of record

