#	Name: ASD06350023
#	Creating user name:	WinNT
#	Creation time:	15. 06. 2019 21:06

#	Modifying user name:	WinNT
#	Modification time:	15. 06. 2019 21:06

#	Program:	/corina/corina34_cracker 3.40 0067  02.08.2006

@<TRIPOS>MOLECULE
ASD06350023
  67   71    0    0    0
SMALL
NO_CHARGES


@<TRIPOS>ATOM
   1 C1            -3.1758     2.4498     4.5299 C.3     
   2 O2            -1.7883     2.6199     4.2337 O.3     
   3 C3            -0.9298     1.7026     4.7519 C.ar    
   4 C4             0.4312     1.8070     4.5042 C.ar    
   5 C5             1.3017     0.8732     5.0321 C.ar    
   6 C6             0.8176    -0.1647     5.8067 C.ar    
   7 C7            -0.5384    -0.2712     6.0547 C.ar    
   8 C8            -1.4124     0.6635     5.5342 C.ar    
   9 C9             1.7695    -1.1819     6.3813 C.3     
  10 N10            2.2246    -0.7347     7.7001 N.pl3   
  11 C11            3.1122    -1.5121     8.4274 C.ar    
  12 N12            3.5322    -1.1151     9.6267 N.ar    
  13 C13            4.3759    -1.8488    10.3238 C.ar    
  14 N14            4.8383    -2.9965     9.8718 N.ar    
  15 C15            4.4666    -3.4623     8.6821 C.ar    
  16 C16            3.5738    -2.7229     7.9168 C.ar    
  17 O17            4.9480    -4.6443     8.2259 O.3     
  18 C18            5.8919    -5.2797     8.9711 C.ar    
  19 C19            7.2302    -5.1848     8.6218 C.ar    
  20 C20            8.1896    -5.8301     9.3777 C.ar    
  21 C21            7.8145    -6.5745    10.4880 C.ar    
  22 C22            6.4741    -6.6699    10.8391 C.ar    
  23 C23            5.5151    -6.0193    10.0857 C.ar    
  24 F24            4.2110    -6.1114    10.4262 F       
  25 N25            8.7871    -7.2291    11.2533 N.am    
  26 C26            8.6084    -7.3849    12.5800 C.2     
  27 O27            7.5390    -7.1028    13.0871 O.2     
  28 C28            9.7059    -7.8958    13.4148 C.2     
  29 C29            9.4795    -8.2531    14.7429 C.2     
  30 C30           10.5445    -8.7343    15.5041 C.2     
  31 C31           11.7794    -8.8496    14.9519 C.2     
  32 N32           12.0068    -8.5035    13.6608 N.am    
  33 C33           11.0122    -8.0391    12.8808 C.2     
  34 O34           11.2359    -7.7334    11.7222 O.2     
  35 C35           13.2955    -8.6364    13.1283 C.ar    
  36 C36           13.6764    -9.8238    12.5178 C.ar    
  37 C37           14.9475    -9.9527    11.9930 C.ar    
  38 C38           15.8417    -8.8986    12.0754 C.ar    
  39 C39           15.4637    -7.7132    12.6840 C.ar    
  40 C40           14.1922    -7.5785    13.2053 C.ar    
  41 C41           13.7813    -6.2884    13.8669 C.3     
  42 F42           17.0847    -9.0268    11.5618 F       
  43 H43           -3.3242     2.4868     5.6092 H       
  44 H44           -3.7487     3.2474     4.0569 H       
  45 H45           -3.5130     1.4856     4.1497 H       
  46 H46            0.8098     2.6173     3.8989 H       
  47 H47            2.3613     0.9538     4.8393 H       
  48 H48           -0.9142    -1.0833     6.6595 H       
  49 H49           -2.4716     0.5799     5.7282 H       
  50 H50            1.2611    -2.1412     6.4785 H       
  51 H51            2.6280    -1.2913     5.7186 H       
  52 H52            1.9046     0.1055     8.0643 H       
  53 H53            4.6979    -1.4989    11.2935 H       
  54 H54            3.2523    -3.0738     6.9473 H       
  55 H55            7.5227    -4.6062     7.7580 H       
  56 H56            9.2319    -5.7559     9.1046 H       
  57 H57            6.1816    -7.2491    11.7025 H       
  58 H58            9.5896    -7.5706    10.8286 H       
  59 H59            8.4946    -8.1585    15.1760 H       
  60 H60           10.3866    -9.0154    16.5348 H       
  61 H61           12.5956    -9.2237    15.5521 H       
  62 H62           12.9794   -10.6463    12.4536 H       
  63 H63           15.2442   -10.8763    11.5183 H       
  64 H64           16.1627    -6.8924    12.7476 H       
  65 H65           13.3495    -5.6196    13.1223 H       
  66 H66           13.0423    -6.4962    14.6407 H       
  67 H67           14.6549    -5.8162    14.3163 H       
@<TRIPOS>BOND
   1    1    2 1
   2    1   43 1
   3    1   44 1
   4    1   45 1
   5    2    3 1
   6    3    4 ar
   7    3    8 ar
   8    4    5 ar
   9    4   46 1
  10    5    6 ar
  11    5   47 1
  12    6    7 ar
  13    6    9 1
  14    7    8 ar
  15    7   48 1
  16    8   49 1
  17    9   10 1
  18    9   50 1
  19    9   51 1
  20   10   11 1
  21   10   52 1
  22   11   12 ar
  23   11   16 ar
  24   12   13 ar
  25   13   14 ar
  26   13   53 1
  27   14   15 ar
  28   15   16 ar
  29   15   17 1
  30   16   54 1
  31   17   18 1
  32   18   19 ar
  33   18   23 ar
  34   19   20 ar
  35   19   55 1
  36   20   21 ar
  37   20   56 1
  38   21   22 ar
  39   21   25 1
  40   22   23 ar
  41   22   57 1
  42   23   24 1
  43   25   26 am
  44   25   58 1
  45   26   27 2
  46   26   28 1
  47   28   29 2
  48   28   33 1
  49   29   30 1
  50   29   59 1
  51   30   31 2
  52   30   60 1
  53   31   32 1
  54   31   61 1
  55   32   33 am
  56   32   35 1
  57   33   34 2
  58   35   36 ar
  59   35   40 ar
  60   36   37 ar
  61   36   62 1
  62   37   38 ar
  63   37   63 1
  64   38   39 ar
  65   38   42 1
  66   39   40 ar
  67   39   64 1
  68   40   41 1
  69   41   65 1
  70   41   66 1
  71   41   67 1

#	End of record

