#	Name: ASD04500018
#	Creating user name:	WinNT
#	Creation time:	15. 06. 2019 20:49

#	Modifying user name:	WinNT
#	Modification time:	15. 06. 2019 20:49

#	Program:	/corina/corina34_cracker 3.40 0067  02.08.2006

@<TRIPOS>MOLECULE
ASD04500018
  85   91    0    0    0
SMALL
NO_CHARGES


@<TRIPOS>ATOM
   1 C1             0.9853    -0.4913     1.2459 C.ar    
   2 C2             1.2634    -1.8279     1.2981 C.ar    
   3 C3             2.5694    -2.2817     1.4305 C.ar    
   4 C4             3.6165    -1.3897     1.5124 C.ar    
   5 C5             3.3558    -0.0216     1.4609 C.ar    
   6 C6             2.0260     0.4388     1.3261 C.ar    
   7 N7             1.7915     1.7652     1.2778 N.2     
   8 C8             4.4318     0.9767     1.5430 C.2     
   9 N9             4.0787     2.2819     1.4835 N.am    
  10 C10            2.7640     2.6382     1.3522 C.2     
  11 O11            5.5963     0.6420     1.6605 O.2     
  12 C12            2.4268     4.0744     1.2916 C.ar    
  13 C13            1.3736     5.9198     0.1656 C.ar    
  14 C14            1.6871     4.5750     0.2174 C.ar    
  15 C15            2.8416     4.9344     2.3111 C.ar    
  16 C16            2.5255     6.2748     2.2532 C.ar    
  17 C17            1.7952     6.7733     1.1835 C.ar    
  18 C18            5.1100     3.3195     1.5610 C.3     
  19 N19            8.3354     5.9797    -1.0778 N.pl3   
  20 N20            8.1885     7.1525    -0.5680 N.2     
  21 N21            9.2880     7.8146    -0.6541 N.2     
  22 C22           10.2095     7.0483    -1.2483 C.2     
  23 C23            9.6078     5.8678    -1.5244 C.2     
  24 C24           11.6368     7.4255    -1.5512 C.3     
  25 N25           11.6922     8.1414    -2.8282 N.am    
  26 C26           11.4489     9.4871    -2.8640 C.2     
  27 N27           11.4813    10.1893    -3.9672 N.2     
  28 C28           11.7614     9.6237    -5.1584 C.ar    
  29 C29           12.0269     8.2364    -5.2177 C.ar    
  30 C30           11.9894     7.4684    -3.9641 C.2     
  31 C31           11.7955    10.3776    -6.3349 C.ar    
  32 C32           12.0861     9.7618    -7.5313 C.ar    
  33 C33           12.3458     8.3987    -7.5852 C.ar    
  34 C34           12.3224     7.6345    -6.4387 C.ar    
  35 C35           11.1340    10.1801    -1.5968 C.ar    
  36 C36           12.0071    10.0868    -0.5118 C.ar    
  37 C37           11.7100    10.7350     0.6697 C.ar    
  38 C38           10.5493    11.4775     0.7829 C.ar    
  39 C39            9.6745    11.5758    -0.2909 C.ar    
  40 C40            9.9658    10.9346    -1.4829 C.ar    
  41 O41           12.2131     6.2720    -3.9494 O.2     
  42 C42            5.6685     3.5890     0.1623 C.3     
  43 C43            6.7456     4.6726     0.2433 C.3     
  44 C44            7.3041     4.9422    -1.1554 C.3     
  45 O45            0.6541     6.4105    -0.8790 O.3     
  46 C46            0.2555     5.4791    -1.8867 C.3     
  47 S47            0.1673     8.4497     1.8028 S.o2    
  48 O48            0.4885     7.9967     3.1108 O.2     
  49 O49           -0.6818     7.6395     1.0017 O.2     
  50 O50            0.1922     9.8482     1.5521 O.2     
  51 O51            1.4862     8.0952     1.1310 O.3     
  52 S52            8.6930    13.7679    -0.5690 S.o2    
  53 O53            9.0950    13.5614    -1.9163 O.2     
  54 O54            9.6888    14.1189     0.3820 O.2     
  55 O55            7.3556    14.1807    -0.3237 O.2     
  56 O56            8.5347    12.3067    -0.1738 O.3     
  57 H57           -0.0352    -0.1542     1.1386 H       
  58 H58            0.4557    -2.5422     1.2357 H       
  59 H59            2.7659    -3.3429     1.4700 H       
  60 H60            4.6302    -1.7476     1.6161 H       
  61 H61            1.3614     3.9126    -0.5709 H       
  62 H62            3.4097     4.5490     3.1448 H       
  63 H63            2.8466     6.9386     3.0424 H       
  64 H64            4.6748     4.2352     1.9612 H       
  65 H65            5.9148     2.9837     2.2151 H       
  66 H66           10.0537     5.0090    -2.0041 H       
  67 H67           12.0191     8.0676    -0.7578 H       
  68 H68           12.2455     6.5235    -1.6137 H       
  69 H69           11.5945    11.4383    -6.3055 H       
  70 H70           12.1120    10.3460    -8.4393 H       
  71 H71           12.5715     7.9340    -8.5337 H       
  72 H72           12.5329     6.5763    -6.4863 H       
  73 H73           12.9145     9.5073    -0.5968 H       
  74 H74           12.3861    10.6618     1.5087 H       
  75 H75           10.3221    11.9826     1.7101 H       
  76 H76            9.2863    11.0105    -2.3190 H       
  77 H77            6.1037     2.6733    -0.2378 H       
  78 H78            4.8638     3.9248    -0.4917 H       
  79 H79            6.3104     5.5883     0.6435 H       
  80 H80            7.5503     4.3368     0.8974 H       
  81 H81            6.4993     5.2780    -1.8094 H       
  82 H82            7.7393     4.0264    -1.5555 H       
  83 H83           -0.3100     5.9997    -2.6595 H       
  84 H84            1.1405     5.0221    -2.3296 H       
  85 H85           -0.3680     4.7048    -1.4396 H       
@<TRIPOS>BOND
   1    1    2 ar
   2    1    6 ar
   3    1   57 1
   4    2    3 ar
   5    2   58 1
   6    3    4 ar
   7    3   59 1
   8    4    5 ar
   9    4   60 1
  10    5    6 ar
  11    5    8 1
  12    6    7 1
  13    7   10 2
  14    8    9 am
  15    8   11 2
  16    9   10 1
  17    9   18 1
  18   10   12 1
  19   12   15 ar
  20   12   14 ar
  21   13   14 ar
  22   13   17 ar
  23   13   45 1
  24   14   61 1
  25   15   16 ar
  26   15   62 1
  27   16   17 ar
  28   16   63 1
  29   17   51 1
  30   18   42 1
  31   18   64 1
  32   18   65 1
  33   19   20 1
  34   19   23 1
  35   19   44 1
  36   20   21 2
  37   21   22 1
  38   22   23 2
  39   22   24 1
  40   23   66 1
  41   24   25 1
  42   24   67 1
  43   24   68 1
  44   25   26 1
  45   25   30 am
  46   26   27 2
  47   26   35 1
  48   27   28 1
  49   28   31 ar
  50   28   29 ar
  51   29   30 1
  52   29   34 ar
  53   30   41 2
  54   31   32 ar
  55   31   69 1
  56   32   33 ar
  57   32   70 1
  58   33   34 ar
  59   33   71 1
  60   34   72 1
  61   35   36 ar
  62   35   40 ar
  63   36   37 ar
  64   36   73 1
  65   37   38 ar
  66   37   74 1
  67   38   39 ar
  68   38   75 1
  69   39   40 ar
  70   39   56 1
  71   40   76 1
  72   42   43 1
  73   42   77 1
  74   42   78 1
  75   43   44 1
  76   43   79 1
  77   43   80 1
  78   44   81 1
  79   44   82 1
  80   45   46 1
  81   46   83 1
  82   46   84 1
  83   46   85 1
  84   47   48 2
  85   47   49 2
  86   47   50 2
  87   47   51 1
  88   52   53 2
  89   52   54 2
  90   52   55 2
  91   52   56 1

#	End of record

