#	Name: ASD00960084
#	Creating user name:	WinNT
#	Creation time:	15. 06. 2019 18:53

#	Modifying user name:	WinNT
#	Modification time:	15. 06. 2019 18:53

#	Program:	/corina/corina34_cracker 3.40 0067  02.08.2006

@<TRIPOS>MOLECULE
ASD00960084
  38   40    0    0    0
SMALL
NO_CHARGES


@<TRIPOS>ATOM
   1 C1             0.0201     1.3576    -0.0160 C.3     
   2 C2            -0.0542    -0.1854    -0.0296 C.3     
   3 O3            -1.1642    -0.5090     0.8359 O.3     
   4 C4            -1.0569     0.4041     1.9498 C.3     
   5 C5            -2.4032     0.5316     2.6655 C.3     
   6 C6            -0.3153    -0.6858    -1.4269 C.2     
   7 C7             0.6333    -0.9078    -2.3748 C.2     
   8 N8            -1.5244    -0.9899    -1.9339 N.pl3   
   9 C9            -1.3595    -1.4124    -3.2391 C.2     
  10 C10           -0.0093    -1.3648    -3.5264 C.2     
  11 N11           -2.8225    -0.9550    -1.4054 N.2     
  12 C12           -3.8374    -1.3156    -2.1414 C.2     
  13 N13           -3.6937    -1.7250    -3.4008 N.2     
  14 C14           -2.5052    -1.7877    -3.9778 C.2     
  15 O15           -2.7915    -0.7435     3.1806 O.3     
  16 N16           -2.3846    -2.2155    -5.2846 N.pl3   
  17 C17            0.6445    -1.7344    -4.8330 C.3     
  18 C18           -0.6548     1.7543     1.3161 C.3     
  19 N19           -0.0246    -0.0508     2.8845 N.2     
  20 N20           -0.1301    -1.0451     3.3979 N.1     
  21 N21           -0.2355    -2.0394     3.9114 N.pl3   
  22 O22            0.2686     2.4474     2.1582 O.3     
  23 *23            0.2491     3.8483     1.9997 Du      
  24 O24            1.3808     1.7935    -0.0373 O.3     
  25 *25            1.5747     3.0370    -0.6731 Du      
  26 H26           -0.5266     1.7737    -0.8623 H       
  27 H27            0.8690    -0.6132     0.3613 H       
  28 H28           -2.3122     1.2428     3.4866 H       
  29 H29           -3.1570     0.8840     1.9615 H       
  30 H30            1.6963    -0.7572    -2.2575 H       
  31 H31           -4.8288    -1.2815    -1.7145 H       
  32 H32           -3.6380    -0.7377     3.6481 H       
  33 H33           -3.1564    -2.5727    -5.7511 H       
  34 H34           -1.5281    -2.1590    -5.7364 H       
  35 H35            0.6055    -0.8830    -5.5124 H       
  36 H36            1.6840    -2.0093    -4.6542 H       
  37 H37            0.1168    -2.5783    -5.2773 H       
  38 H38           -1.5370     2.3666     1.1298 H       
@<TRIPOS>BOND
   1    1    2 1
   2    1   24 1
   3    1   18 1
   4    1   26 1
   5    2    3 1
   6    2    6 1
   7    2   27 1
   8    3    4 1
   9    4    5 1
  10    4   19 1
  11    4   18 1
  12    5   15 1
  13    5   28 1
  14    5   29 1
  15    6    7 2
  16    6    8 1
  17    7   10 1
  18    7   30 1
  19    8    9 1
  20    8   11 1
  21    9   10 2
  22    9   14 1
  23   10   17 1
  24   11   12 2
  25   12   13 1
  26   12   31 1
  27   13   14 2
  28   14   16 1
  29   15   32 1
  30   16   33 1
  31   16   34 1
  32   17   35 1
  33   17   36 1
  34   17   37 1
  35   18   22 1
  36   18   38 1
  37   19   20 2
  38   20   21 2
  39   22   23 1
  40   24   25 1

#	End of record

