#	Name: ASD01120350
#	Creating user name:	WinNT
#	Creation time:	15. 06. 2019 18:59

#	Modifying user name:	WinNT
#	Modification time:	15. 06. 2019 18:59

#	Program:	/corina/corina34_cracker 3.40 0067  02.08.2006

@<TRIPOS>MOLECULE
ASD01120350
  30   31    0    0    0
SMALL
NO_CHARGES


@<TRIPOS>ATOM
   1 C1            -0.0168     1.3844     0.0097 C.ar    
   2 C2             0.0021    -0.0041     0.0020 C.ar    
   3 C3             1.1961    -0.6903    -0.0126 C.ar    
   4 C4             2.3982     0.0114    -0.0203 C.ar    
   5 C5             2.3777     1.4202    -0.0130 C.ar    
   6 C6             1.1494     2.0958     0.0023 C.ar    
   7 N7             3.7158    -0.3806    -0.0346 N.pl3   
   8 C8             4.5154     0.7470    -0.0364 C.2     
   9 C9             3.7249     1.8532    -0.0234 C.2     
  10 C10            4.1985     3.2838    -0.0211 C.3     
  11 C11            4.3455     3.7748    -1.4627 C.3     
  12 C12            4.8191     5.2054    -1.4604 C.2     
  13 O13            5.0193     5.8480    -2.6217 O.3     
  14 O14            5.0186     5.7740    -0.4131 O.2     
  15 C15            5.9839     0.7497    -0.0505 C.2     
  16 O16            6.5898     1.8037    -0.0504 O.2     
  17 O17            6.6602    -0.4169    -0.0637 O.3     
  18 Cl18           1.1105     3.8314     0.0109 Cl      
  19 N19            1.2011    -2.1705    -0.0196 N.pl3   
  20 O20            0.1484    -2.7831    -0.0125 O.2     
  21 O21            2.2579    -2.7759    -0.0325 O.2     
  22 H22           -0.9621     1.9066     0.0169 H       
  23 H23           -0.9290    -0.5513     0.0080 H       
  24 H24            4.0323    -1.2975    -0.0416 H       
  25 H25            3.4726     3.9060     0.5024 H       
  26 H26            5.1623     3.3467     0.4842 H       
  27 H27            5.0714     3.1526    -1.9862 H       
  28 H28            3.3817     3.7119    -1.9680 H       
  29 H29            5.3232     6.7645    -2.5696 H       
  30 H30            7.6257    -0.3645    -0.0727 H       
@<TRIPOS>BOND
   1    1    2 ar
   2    1    6 ar
   3    1   22 1
   4    2    3 ar
   5    2   23 1
   6    3   19 1
   7    3    4 ar
   8    4    5 ar
   9    4    7 1
  10    5    6 ar
  11    5    9 1
  12    6   18 1
  13    7    8 1
  14    7   24 1
  15    8    9 2
  16    8   15 1
  17    9   10 1
  18   10   11 1
  19   10   25 1
  20   10   26 1
  21   11   12 1
  22   11   27 1
  23   11   28 1
  24   12   13 1
  25   12   14 2
  26   13   29 1
  27   15   16 2
  28   15   17 1
  29   17   30 1
  30   19   20 2
  31   19   21 2

#	End of record

