#	Name: ASD03730690
#	Creating user name:	WinNT
#	Creation time:	15. 06. 2019 20:44

#	Modifying user name:	WinNT
#	Modification time:	15. 06. 2019 20:44

#	Program:	/corina/corina34_cracker 3.40 0067  02.08.2006

@<TRIPOS>MOLECULE
ASD03730690
  47   52    0    0    0
SMALL
NO_CHARGES


@<TRIPOS>ATOM
   1 C1             1.5536    -1.2882    -2.4118 C.2     
   2 C2             0.7043    -1.1986    -1.2115 C.ar    
   3 C3             1.2073    -0.6340    -0.0355 C.ar    
   4 C4             0.4061    -0.5531     1.0838 C.ar    
   5 C5            -0.8930    -1.0291     1.0451 C.ar    
   6 C6            -1.3979    -1.5891    -0.1151 C.ar    
   7 C7            -0.6104    -1.6722    -1.2443 C.ar    
   8 O8             2.6586    -0.7877    -2.4117 O.2     
   9 Cl9            0.9760    -2.1164    -3.8240 Cl      
  10 C10            2.6216    -0.1157     0.0088 C.3     
  11 O11            0.0937    -1.7710     6.5327 O.3     
  12 C12            0.0959    -1.6647     7.9686 C.3     
  13 O13            1.4945    -1.6037     8.3051 O.3     
  14 C14            2.1109    -1.0671     7.2111 C.ar    
  15 C15            1.2495    -1.1712     6.1214 C.ar    
  16 C16            3.3574    -0.4878     7.0546 C.ar    
  17 C17            3.7608    -0.0076     5.8123 C.ar    
  18 C18            2.8948    -0.1247     4.7294 C.ar    
  19 C19            1.6490    -0.6962     4.8835 C.ar    
  20 O20            4.9243     0.6051     5.4504 O.3     
  21 C21            3.6159     0.4498     3.5395 C.3     
  22 C22            5.0712     0.5382     4.0188 C.3     
  23 N23            2.9271     0.3550     1.3621 N.am    
  24 C24            3.4796    -0.4158     2.3201 C.2     
  25 C25            3.0766     1.7906     3.1378 C.ar    
  26 C26            2.9281     2.9919     3.7944 C.ar    
  27 C27            2.3824     4.0790     3.1352 C.ar    
  28 C28            1.9859     3.9560     1.8159 C.ar    
  29 C29            2.1316     2.7546     1.1543 C.ar    
  30 C30            2.6804     1.6550     1.8098 C.ar    
  31 O31            3.8036    -1.5800     2.2172 O.2     
  32 H32            0.7934    -0.1176     1.9931 H       
  33 H33           -1.5157    -0.9633     1.9251 H       
  34 H34           -2.4125    -1.9587    -0.1376 H       
  35 H35           -1.0071    -2.1057    -2.1504 H       
  36 H36            3.3105    -0.9160    -0.2616 H       
  37 H37            2.7285     0.7092    -0.6955 H       
  38 H38           -0.4144    -0.7554     8.2861 H       
  39 H39           -0.3682    -2.5425     8.4183 H       
  40 H40            4.0218    -0.4077     7.9023 H       
  41 H41            0.9835    -0.7738     4.0364 H       
  42 H42            5.5507     1.4393     3.6363 H       
  43 H43            5.6292    -0.3518     3.7281 H       
  44 H44            3.2383     3.0856     4.8246 H       
  45 H45            2.2667     5.0216     3.6495 H       
  46 H46            1.5598     4.8046     1.3014 H       
  47 H47            1.8192     2.6661     0.1243 H       
@<TRIPOS>BOND
   1    1    2 1
   2    1    8 2
   3    1    9 1
   4    2    3 ar
   5    2    7 ar
   6    3    4 ar
   7    3   10 1
   8    4    5 ar
   9    4   32 1
  10    5    6 ar
  11    5   33 1
  12    6    7 ar
  13    6   34 1
  14    7   35 1
  15   10   23 1
  16   10   36 1
  17   10   37 1
  18   11   12 1
  19   11   15 1
  20   12   13 1
  21   12   38 1
  22   12   39 1
  23   13   14 1
  24   14   15 ar
  25   14   16 ar
  26   15   19 ar
  27   16   17 ar
  28   16   40 1
  29   17   18 ar
  30   17   20 1
  31   18   19 ar
  32   18   21 1
  33   19   41 1
  34   20   22 1
  35   21   22 1
  36   21   24 1
  37   21   25 1
  38   22   42 1
  39   22   43 1
  40   23   24 am
  41   23   30 1
  42   24   31 2
  43   25   26 ar
  44   25   30 ar
  45   26   27 ar
  46   26   44 1
  47   27   28 ar
  48   27   45 1
  49   28   29 ar
  50   28   46 1
  51   29   30 ar
  52   29   47 1

#	End of record

