#	Name: ASD09200051
#	Creating user name:	WinNT
#	Creation time:	15. 06. 2019 21:21

#	Modifying user name:	WinNT
#	Modification time:	15. 06. 2019 21:21

#	Program:	/corina/corina34_cracker 3.40 0067  02.08.2006

@<TRIPOS>MOLECULE
ASD09200051
  45   47    0    0    0
SMALL
NO_CHARGES


@<TRIPOS>ATOM
   1 C1            -0.2546     1.4788    -0.6319 C.ar    
   2 C2             0.0299     0.3644     0.1420 C.ar    
   3 C3            -0.9552    -0.2054     0.9323 C.ar    
   4 C4            -2.2246     0.3343     0.9526 C.ar    
   5 C5            -2.5160     1.4557     0.1763 C.ar    
   6 C6            -1.5204     2.0295    -0.6133 C.ar    
   7 C7            -3.8781     2.0389     0.1949 C.ar    
   8 C8            -4.9950     1.2211    -0.0249 C.ar    
   9 N9            -6.2122     1.7481    -0.0073 N.ar    
  10 C10           -6.3686     3.0469     0.2183 C.ar    
  11 C11           -5.2561     3.8581     0.4366 C.ar    
  12 N12           -4.0433     3.3379     0.4255 N.ar    
  13 N13           -7.6440     3.5991     0.2363 N.3     
  14 C14           -8.6107     2.6714     0.8374 C.3     
  15 C15           -9.9682     3.3647     0.9734 C.3     
  16 C16          -10.4505     3.8078    -0.4106 C.3     
  17 C17           -9.4035     4.7344    -1.0348 C.3     
  18 C18           -8.0623     4.0015    -1.1126 C.3     
  19 N19           -4.8278    -0.1368    -0.2609 N.pl3   
  20 F20            1.2715    -0.1680     0.1251 F       
  21 Br21           1.0951     2.2503    -1.7085 Br      
  22 C22           -1.8288     3.2412    -1.4545 C.3     
  23 Cl23          -5.4670     5.5559     0.7310 Cl      
  24 C24           -9.8496     5.1342    -2.4426 C.3     
  25 N25          -10.6353     2.6285    -1.2669 N.3     
  26 H26           -0.7290    -1.0737     1.5333 H       
  27 H27           -2.9917    -0.1111     1.5686 H       
  28 H28           -8.7140     1.7922     0.2016 H       
  29 H29           -8.2578     2.3674     1.8229 H       
  30 H30          -10.6895     2.6708     1.4053 H       
  31 H31           -9.8686     4.2363     1.6204 H       
  32 H32          -11.3966     4.3403    -0.3134 H       
  33 H33           -9.2950     5.6276    -0.4195 H       
  34 H34           -7.3112     4.6635    -1.5435 H       
  35 H35           -8.1682     3.1160    -1.7393 H       
  36 H36           -3.9373    -0.5024    -0.3797 H       
  37 H37           -5.6016    -0.7199    -0.3071 H       
  38 H38           -1.7078     4.1418    -0.8524 H       
  39 H39           -1.1463     3.2774    -2.3036 H       
  40 H40           -2.8554     3.1810    -1.8158 H       
  41 H41          -10.8066     5.6531    -2.3869 H       
  42 H42           -9.1039     5.7938    -2.8865 H       
  43 H43           -9.9561     4.2405    -3.0575 H       
  44 H44          -11.3184     1.9990    -0.8729 H       
  45 H45          -10.8913     2.8991    -2.2046 H       
@<TRIPOS>BOND
   1    1    2 ar
   2    1   21 1
   3    1    6 ar
   4    2    3 ar
   5    2   20 1
   6    3    4 ar
   7    3   26 1
   8    4    5 ar
   9    4   27 1
  10    5    6 ar
  11    5    7 1
  12    6   22 1
  13    7    8 ar
  14    7   12 ar
  15    8    9 ar
  16    8   19 1
  17    9   10 ar
  18   10   11 ar
  19   10   13 1
  20   11   12 ar
  21   11   23 1
  22   13   14 1
  23   13   18 1
  24   14   15 1
  25   14   28 1
  26   14   29 1
  27   15   16 1
  28   15   30 1
  29   15   31 1
  30   16   17 1
  31   16   25 1
  32   16   32 1
  33   17   18 1
  34   17   24 1
  35   17   33 1
  36   18   34 1
  37   18   35 1
  38   19   36 1
  39   19   37 1
  40   22   38 1
  41   22   39 1
  42   22   40 1
  43   24   41 1
  44   24   42 1
  45   24   43 1
  46   25   44 1
  47   25   45 1

#	End of record

