#	Name: ASD09116452
#	Creating user name:	WinNT
#	Creation time:	15. 06. 2019 21:21

#	Modifying user name:	WinNT
#	Modification time:	15. 06. 2019 21:21

#	Program:	/corina/corina34_cracker 3.40 0067  02.08.2006

@<TRIPOS>MOLECULE
ASD09116452
  67   72    0    0    0
SMALL
NO_CHARGES


@<TRIPOS>ATOM
   1 N1            -0.0397     1.5317     0.0625 N.2     
   2 N2            -0.0589     0.1358     0.2135 N.pl3   
   3 C3             1.2196     1.8977     0.0462 C.2     
   4 N4             1.9910     0.8122     0.1782 N.2     
   5 C5             1.2342    -0.2593     0.2804 C.2     
   6 N6             1.6806    -1.5585     0.4303 N.pl3   
   7 C7            -1.1879    -0.6826     0.2814 C.ar    
   8 N8             1.6806     3.2074    -0.0873 N.pl3   
   9 C9             3.0494     3.4822     0.0201 C.ar    
  10 C10            3.5994     4.5516    -0.6744 C.ar    
  11 C11            3.8557     2.6887     0.8256 C.ar    
  12 C12            5.2059     2.9592     0.9325 C.ar    
  13 C13            5.7581     4.0245     0.2350 C.ar    
  14 C14            4.9509     4.8226    -0.5681 C.ar    
  15 N15           -1.1032    -1.9580    -0.0660 N.ar    
  16 N16           -2.1141    -2.7514    -0.0310 N.ar    
  17 C17           -3.3092    -2.3356     0.3566 C.ar    
  18 C18           -3.4889    -1.0100     0.7621 C.ar    
  19 C19           -2.4058    -0.1577     0.7211 C.ar    
  20 C20           -4.4874    -3.2334     0.3464 C.ar    
  21 C21           -5.6661    -2.7927    -0.2574 C.ar    
  22 C22           -5.6929    -1.4466    -0.9280 C.3     
  23 C23           -5.7886    -0.3171     0.0940 C.3     
  24 C24           -4.8317    -0.5586     1.2583 C.3     
  25 C25           -4.4337    -4.4948     0.9291 C.ar    
  26 C26           -5.5569    -5.2990     0.9232 C.ar    
  27 C27           -6.7293    -4.8499     0.3430 C.ar    
  28 C28           -6.7842    -3.5987    -0.2464 C.ar    
  29 N29            7.1280     4.2993     0.3445 N.3     
  30 F30            5.4877     5.8597    -1.2473 F       
  31 C31            7.4986     4.5898     1.7417 C.3     
  32 C32            8.6067     3.5915     2.1377 C.3     
  33 C33            9.1994     3.1659     0.7686 C.3     
  34 C34            7.9371     3.1561    -0.1293 C.3     
  35 N35            9.6278     4.2498     2.9636 N.3     
  36 C36            9.0276     4.8536     4.1607 C.3     
  37 C37           10.6967     3.3100     3.3276 C.3     
  38 H38            2.6321    -1.7432     0.4681 H       
  39 H39            1.0423    -2.2859     0.4976 H       
  40 H40            1.0529     3.9278    -0.2545 H       
  41 H41            2.9716     5.1712    -1.2976 H       
  42 H42            3.4267     1.8598     1.3690 H       
  43 H43            5.8322     2.3419     1.5595 H       
  44 H44           -2.4972     0.8787     1.0109 H       
  45 H45           -4.7818    -1.3216    -1.5133 H       
  46 H46           -6.5534    -1.3977    -1.5952 H       
  47 H47           -5.5350     0.6265    -0.3892 H       
  48 H48           -6.8089    -0.2621     0.4736 H       
  49 H49           -5.2485    -1.3250     1.9118 H       
  50 H50           -4.7129     0.3665     1.8224 H       
  51 H51           -3.5184    -4.8441     1.3836 H       
  52 H52           -5.5195    -6.2802     1.3728 H       
  53 H53           -7.6070    -5.4793     0.3495 H       
  54 H54           -7.7031    -3.2537    -0.6970 H       
  55 H55            7.8730     5.6103     1.8214 H       
  56 H56            6.6323     4.4586     2.3901 H       
  57 H57            8.1835     2.7325     2.6583 H       
  58 H58            9.9257     3.8969     0.4133 H       
  59 H59            9.6443     2.1726     0.8276 H       
  60 H60            7.3877     2.2235    -0.0014 H       
  61 H61            8.2138     3.2944    -1.1744 H       
  62 H62            8.5438     4.0785     4.7550 H       
  63 H63            9.8055     5.3341     4.7542 H       
  64 H64            8.2883     5.5964     3.8612 H       
  65 H65           11.2288     2.9992     2.4285 H       
  66 H66           11.3919     3.7974     4.0111 H       
  67 H67           10.2623     2.4361     3.8131 H       
@<TRIPOS>BOND
   1    1    2 1
   2    1    3 2
   3    2    7 1
   4    2    5 1
   5    3    4 1
   6    3    8 1
   7    4    5 2
   8    5    6 1
   9    6   38 1
  10    6   39 1
  11    7   15 ar
  12    7   19 ar
  13    8    9 1
  14    8   40 1
  15    9   10 ar
  16    9   11 ar
  17   10   14 ar
  18   10   41 1
  19   11   12 ar
  20   11   42 1
  21   12   13 ar
  22   12   43 1
  23   13   14 ar
  24   13   29 1
  25   14   30 1
  26   15   16 ar
  27   16   17 ar
  28   17   18 ar
  29   17   20 1
  30   18   19 ar
  31   18   24 1
  32   19   44 1
  33   20   21 ar
  34   20   25 ar
  35   21   22 1
  36   21   28 ar
  37   22   23 1
  38   22   45 1
  39   22   46 1
  40   23   24 1
  41   23   47 1
  42   23   48 1
  43   24   49 1
  44   24   50 1
  45   25   26 ar
  46   25   51 1
  47   26   27 ar
  48   26   52 1
  49   27   28 ar
  50   27   53 1
  51   28   54 1
  52   29   31 1
  53   29   34 1
  54   31   32 1
  55   31   55 1
  56   31   56 1
  57   32   33 1
  58   32   35 1
  59   32   57 1
  60   33   34 1
  61   33   58 1
  62   33   59 1
  63   34   60 1
  64   34   61 1
  65   35   36 1
  66   35   37 1
  67   36   62 1
  68   36   63 1
  69   36   64 1
  70   37   65 1
  71   37   66 1
  72   37   67 1

#	End of record

