#	Name: ASD05060129
#	Creating user name:	WinNT
#	Creation time:	15. 06. 2019 20:56

#	Modifying user name:	WinNT
#	Modification time:	15. 06. 2019 20:56

#	Program:	/corina/corina34_cracker 3.40 0067  02.08.2006

@<TRIPOS>MOLECULE
ASD05060129
  29   30    0    0    0
SMALL
NO_CHARGES


@<TRIPOS>ATOM
   1 C1            -0.0167     1.3788     0.0096 C.ar    
   2 C2             0.0021    -0.0041     0.0020 C.ar    
   3 C3             1.2196    -0.6697    -0.0132 C.ar    
   4 N4             2.3542    -0.0075    -0.0200 N.ar    
   5 C5             2.3874     1.3206    -0.0132 C.ar    
   6 C6             1.1994     2.0590     0.0017 C.ar    
   7 C7             3.6883     2.0227    -0.0213 C.2     
   8 N8             4.8356     1.3156    -0.0357 N.am    
   9 O9             3.7233     3.2377    -0.0151 O.2     
  10 O10            1.2308     3.4151     0.0082 O.3     
  11 C11            6.1248     2.0114    -0.0437 C.3     
  12 C12            7.2416     0.9996    -0.0594 C.ar    
  13 C13            8.7848    -0.4027     1.1183 C.ar    
  14 C14            7.7604     0.5254     1.1307 C.ar    
  15 C15            7.7424     0.5424    -1.2643 C.ar    
  16 C16            9.2912    -0.8579    -0.0867 C.ar    
  17 C17            8.7668    -0.3863    -1.2797 C.ar    
  18 F18           10.2927    -1.7646    -0.0999 F       
  19 Cl19           9.3951    -0.9615    -2.7923 Cl      
  20 H20           -0.9520     1.9188     0.0170 H       
  21 H21           -0.9231    -0.5612     0.0082 H       
  22 H22            1.2346    -1.7496    -0.0191 H       
  23 H23            4.8077     0.3460    -0.0406 H       
  24 H24            1.2481     3.8039     0.8934 H       
  25 H25            6.1924     2.6409    -0.9310 H       
  26 H26            6.2087     2.6313     0.8488 H       
  27 H27            9.1929    -0.7692     2.0486 H       
  28 H28            7.3654     0.8805     2.0711 H       
  29 H29            7.3332     0.9103    -2.1936 H       
@<TRIPOS>BOND
   1    1    2 ar
   2    1    6 ar
   3    1   20 1
   4    2    3 ar
   5    2   21 1
   6    3    4 ar
   7    3   22 1
   8    4    5 ar
   9    5    6 ar
  10    5    7 1
  11    6   10 1
  12    7    8 am
  13    7    9 2
  14    8   11 1
  15    8   23 1
  16   10   24 1
  17   11   12 1
  18   11   25 1
  19   11   26 1
  20   12   15 ar
  21   12   14 ar
  22   13   16 ar
  23   13   14 ar
  24   13   27 1
  25   14   28 1
  26   15   17 ar
  27   15   29 1
  28   16   17 ar
  29   16   18 1
  30   17   19 1

#	End of record

