#	Name: ASD04880648
#	Creating user name:	WinNT
#	Creation time:	15. 06. 2019 20:53

#	Modifying user name:	WinNT
#	Modification time:	15. 06. 2019 20:53

#	Program:	/corina/corina34_cracker 3.40 0067  02.08.2006

@<TRIPOS>MOLECULE
ASD04880648
  47   49    0    0    0
SMALL
NO_CHARGES


@<TRIPOS>ATOM
   1 C1            -0.0285     1.3793     0.2201 C.ar    
   2 C2            -0.0129    -0.0016     0.2679 C.ar    
   3 C3             1.2016    -0.6849     0.2794 C.ar    
   4 C4             2.3969     0.0175     0.2425 C.ar    
   5 C5             2.3894     1.3960     0.1947 C.ar    
   6 C6             1.1758     2.0876     0.1829 C.ar    
   7 O7             1.2148    -2.0434     0.3273 O.3     
   8 C8             2.4942    -2.6799     0.3364 C.3     
   9 C9            -2.3899     0.0708     0.2903 C.3     
  10 O10           -1.1829    -0.6939     0.3042 O.3     
  11 C11            1.1654     3.5608     0.1314 C.2     
  12 N12            0.1078     4.2969     0.1169 N.2     
  13 N13            0.3672     5.6650     0.0670 N.am    
  14 C14            1.8238     5.8727     0.0448 C.3     
  15 C15            2.3940     4.4413     0.0940 C.3     
  16 C16           -0.5640     6.6390     0.0426 C.2     
  17 O17           -0.2255     7.8055     0.1028 O.2     
  18 C18           -1.9954     6.2898    -0.0573 C.ar    
  19 C19           -2.9694     7.2841     0.0615 C.ar    
  20 C20           -4.3047     6.9521    -0.0326 C.ar    
  21 C21           -4.6807     5.6330    -0.2444 C.ar    
  22 C22           -3.7176     4.6433    -0.3628 C.ar    
  23 C23           -2.3798     4.9653    -0.2765 C.ar    
  24 C24            2.2470     6.5818    -1.2433 C.3     
  25 C25            2.2730     6.6686     1.2718 C.3     
  26 F26           -5.9900     5.3125    -0.3349 F       
  27 Cl27          -5.5170     8.1859     0.1147 Cl      
  28 H28           -0.9691     1.9099     0.2070 H       
  29 H29            3.3358    -0.5161     0.2515 H       
  30 H30            3.3217     1.9405     0.1664 H       
  31 H31            2.3618    -3.7611     0.3761 H       
  32 H32            3.0390    -2.4135    -0.5693 H       
  33 H33            3.0576    -2.3505     1.2095 H       
  34 H34           -3.2468    -0.6021     0.3226 H       
  35 H35           -2.4126     0.7298     1.1582 H       
  36 H36           -2.4312     0.6681    -0.6206 H       
  37 H37            2.9947     4.2978     0.9921 H       
  38 H38            2.9845     4.2360    -0.7990 H       
  39 H39           -2.6774     8.3106     0.2270 H       
  40 H40           -4.0157     3.6184    -0.5275 H       
  41 H41           -1.6305     4.1936    -0.3734 H       
  42 H42            1.7714     7.5613    -1.2918 H       
  43 H43            3.3302     6.7030    -1.2523 H       
  44 H44            1.9409     5.9862    -2.1033 H       
  45 H45            1.9851     6.1340     2.1770 H       
  46 H46            3.3561     6.7894     1.2500 H       
  47 H47            1.7978     7.6495     1.2625 H       
@<TRIPOS>BOND
   1    1    2 ar
   2    1    6 ar
   3    1   28 1
   4    2   10 1
   5    2    3 ar
   6    3    4 ar
   7    3    7 1
   8    4    5 ar
   9    4   29 1
  10    5    6 ar
  11    5   30 1
  12    6   11 1
  13    7    8 1
  14    8   31 1
  15    8   32 1
  16    8   33 1
  17    9   10 1
  18    9   34 1
  19    9   35 1
  20    9   36 1
  21   11   12 2
  22   11   15 1
  23   12   13 1
  24   13   14 1
  25   13   16 am
  26   14   15 1
  27   14   24 1
  28   14   25 1
  29   15   37 1
  30   15   38 1
  31   16   17 2
  32   16   18 1
  33   18   19 ar
  34   18   23 ar
  35   19   20 ar
  36   19   39 1
  37   20   21 ar
  38   20   27 1
  39   21   22 ar
  40   21   26 1
  41   22   23 ar
  42   22   40 1
  43   23   41 1
  44   24   42 1
  45   24   43 1
  46   24   44 1
  47   25   45 1
  48   25   46 1
  49   25   47 1

#	End of record

