#	Name: ASD01880784
#	Creating user name:	WinNT
#	Creation time:	15. 06. 2019 19:41

#	Modifying user name:	WinNT
#	Modification time:	15. 06. 2019 19:41

#	Program:	/corina/corina34_cracker 3.40 0067  02.08.2006

@<TRIPOS>MOLECULE
ASD01880784
  42   46    0    0    0
SMALL
NO_CHARGES


@<TRIPOS>ATOM
   1 C1            -0.0169     1.3927     0.0097 C.ar    
   2 C2             0.0021    -0.0041     0.0020 C.ar    
   3 C3             1.2134    -0.6907    -0.0132 C.ar    
   4 C4             2.4022     0.0193    -0.0208 C.ar    
   5 C5             2.3727     1.4245    -0.0130 C.ar    
   6 C6             1.1522     2.0999     0.0023 C.ar    
   7 N7             3.6286    -0.6377    -0.0355 N.pl3   
   8 C8             4.7929     0.0687    -0.0425 C.2     
   9 N9             4.8015     1.4561    -0.0349 N.am    
  10 C10            3.6502     2.1584    -0.0210 C.2     
  11 N11            3.9493    -2.0027    -0.0456 N.2     
  12 C12            5.2606    -2.1201    -0.0583 C.2     
  13 C13            5.8179    -0.8302    -0.0567 C.2     
  14 O14            3.6662     3.3750    -0.0143 O.2     
  15 C15           -1.2742    -0.7594     0.0106 C.ar    
  16 C16            6.0194    -3.3954    -0.0723 C.ar    
  17 C17           -2.5028    -0.0934     0.0264 C.ar    
  18 N18           -3.6165    -0.8054     0.0337 N.ar    
  19 C19           -3.5787    -2.1232     0.0263 C.ar    
  20 N20           -2.4418    -2.7905     0.0114 N.ar    
  21 C21           -1.2818    -2.1569    -0.0026 C.ar    
  22 C22            5.3412    -4.6126    -0.0734 C.ar    
  23 C23            7.4126    -3.3798    -0.0903 C.ar    
  24 C24            8.1133    -4.5688    -0.1033 C.ar    
  25 C25            7.4350    -5.7744    -0.0985 C.ar    
  26 C26            6.0520    -5.7956    -0.0865 C.ar    
  27 C27            6.0812     2.1693    -0.0431 C.3     
  28 H28           -0.9612     1.9167     0.0170 H       
  29 H29            1.2257    -1.7707    -0.0188 H       
  30 H30            1.1314     3.1797     0.0087 H       
  31 H31            6.8715    -0.5928    -0.0648 H       
  32 H32           -2.5416     0.9859     0.0329 H       
  33 H33           -4.5081    -2.6733     0.0330 H       
  34 H34           -0.3545    -2.7104    -0.0151 H       
  35 H35            4.2614    -4.6303    -0.0637 H       
  36 H36            7.9431    -2.4391    -0.0944 H       
  37 H37            9.1931    -4.5580    -0.1175 H       
  38 H38            7.9873    -6.7024    -0.1091 H       
  39 H39            5.5274    -6.7396    -0.0828 H       
  40 H40            6.3888     2.3519    -1.0727 H       
  41 H41            5.9702     3.1207     0.4771 H       
  42 H42            6.8366     1.5659     0.4603 H       
@<TRIPOS>BOND
   1    1    2 ar
   2    1    6 ar
   3    1   28 1
   4    2    3 ar
   5    2   15 1
   6    3    4 ar
   7    3   29 1
   8    4    5 ar
   9    4    7 1
  10    5    6 ar
  11    5   10 1
  12    6   30 1
  13    7    8 1
  14    7   11 1
  15    8    9 1
  16    8   13 2
  17    9   10 am
  18    9   27 1
  19   10   14 2
  20   11   12 2
  21   12   13 1
  22   12   16 1
  23   13   31 1
  24   15   17 ar
  25   15   21 ar
  26   16   22 ar
  27   16   23 ar
  28   17   18 ar
  29   17   32 1
  30   18   19 ar
  31   19   20 ar
  32   19   33 1
  33   20   21 ar
  34   21   34 1
  35   22   26 ar
  36   22   35 1
  37   23   24 ar
  38   23   36 1
  39   24   25 ar
  40   24   37 1
  41   25   26 ar
  42   25   38 1
  43   26   39 1
  44   27   40 1
  45   27   41 1
  46   27   42 1

#	End of record

