#	Name: ASD04910452
#	Creating user name:	WinNT
#	Creation time:	15. 06. 2019 20:55

#	Modifying user name:	WinNT
#	Modification time:	15. 06. 2019 20:55

#	Program:	/corina/corina34_cracker 3.40 0067  02.08.2006

@<TRIPOS>MOLECULE
ASD04910452
  64   67    0    0    0
SMALL
NO_CHARGES


@<TRIPOS>ATOM
   1 C1             0.1681     1.6706    -0.2873 C.2     
   2 C2             0.1407     0.1639    -0.3027 C.3     
   3 C3             1.5705    -0.3731    -0.2120 C.3     
   4 O4             1.2229     2.2549    -0.2116 O.2     
   5 O5            -0.9790     2.3635    -0.3633 O.3     
   6 C6             2.6960    -2.5335    -0.1563 C.2     
   7 C7             2.6691    -4.0116    -0.1714 C.ar    
   8 C8             1.4503    -4.6910    -0.1308 C.ar    
   9 C9             1.4323    -6.0702    -0.1457 C.ar    
  10 C10            2.6188    -6.7802    -0.2002 C.ar    
  11 C11            3.8300    -6.1130    -0.2407 C.ar    
  12 C12            3.8618    -4.7336    -0.2322 C.ar    
  13 O13            3.7572    -1.9456    -0.0801 O.2     
  14 N14            1.5438    -1.8378    -0.2270 N.am    
  15 C15            5.1819    -4.0084    -0.2821 C.3     
  16 C16            5.6107    -3.6315     1.1374 C.3     
  17 C17            6.8858    -2.7880     1.0780 C.3     
  18 C18            7.3146    -2.4111     2.4975 C.3     
  19 O19            6.1702    -4.8578    -0.8685 O.3     
  20 C20            8.0101    -5.0418    -2.3720 C.ar    
  21 C21            7.0722    -4.2724    -1.7004 C.ar    
  22 C22            7.0654    -2.8933    -1.8887 C.ar    
  23 C23            8.0016    -2.3404    -2.7450 C.ar    
  24 C24            8.9107    -3.1742    -3.3836 C.ar    
  25 N25            8.8878    -4.4814    -3.1806 N.ar    
  26 N26            9.8610    -2.6255    -4.2515 N.pl3   
  27 N27           10.0034    -1.2674    -4.5610 N.2     
  28 C28           10.9939    -1.1346    -5.4029 C.2     
  29 C29           11.5235    -2.4145    -5.6630 C.2     
  30 C30           10.8042    -3.3140    -4.9319 C.2     
  31 C31           12.6611    -2.7265    -6.5644 C.ar    
  32 C32           13.3119    -1.7024    -7.2488 C.ar    
  33 C33           14.3689    -1.9980    -8.0857 C.ar    
  34 C34           14.7819    -3.3084    -8.2459 C.ar    
  35 C35           14.1392    -4.3290    -7.5688 C.ar    
  36 C36           13.0851    -4.0438    -6.7246 C.ar    
  37 H37           -0.4379    -0.1976     0.5474 H       
  38 H38           -0.3192    -0.1816    -1.2285 H       
  39 H39            2.1490    -0.0115    -1.0621 H       
  40 H40            2.0303    -0.0275     0.7138 H       
  41 H41           -0.9110     3.3280    -0.3498 H       
  42 H42            0.5236    -4.1381    -0.0875 H       
  43 H43            0.4900    -6.5971    -0.1143 H       
  44 H44            2.5992    -7.8600    -0.2110 H       
  45 H45            4.7524    -6.6731    -0.2832 H       
  46 H46            0.6970    -2.3069    -0.2878 H       
  47 H47            5.0774    -3.1045    -0.8821 H       
  48 H48            4.8174    -3.0576     1.6163 H       
  49 H49            5.8012    -4.5379     1.7121 H       
  50 H50            7.6791    -3.3619     0.5990 H       
  51 H51            6.6953    -1.8816     0.5032 H       
  52 H52            6.5213    -1.8372     2.9764 H       
  53 H53            7.5051    -3.3175     3.0722 H       
  54 H54            8.2230    -1.8101     2.4551 H       
  55 H55            8.0246    -6.1120    -2.2276 H       
  56 H56            6.3462    -2.2695    -1.3789 H       
  57 H57            8.0249    -1.2741    -2.9148 H       
  58 H58           11.3455    -0.2054    -5.8263 H       
  59 H59           10.9588    -4.3825    -4.9038 H       
  60 H60           12.9898    -0.6790    -7.1249 H       
  61 H61           14.8742    -1.2049    -8.6167 H       
  62 H62           15.6090    -3.5354    -8.9022 H       
  63 H63           14.4656    -5.3504    -7.6974 H       
  64 H64           12.5868    -4.8409    -6.1930 H       
@<TRIPOS>BOND
   1    1    2 1
   2    1    4 2
   3    1    5 1
   4    2    3 1
   5    2   37 1
   6    2   38 1
   7    3   14 1
   8    3   39 1
   9    3   40 1
  10    5   41 1
  11    6    7 1
  12    6   13 2
  13    6   14 am
  14    7    8 ar
  15    7   12 ar
  16    8    9 ar
  17    8   42 1
  18    9   10 ar
  19    9   43 1
  20   10   11 ar
  21   10   44 1
  22   11   12 ar
  23   11   45 1
  24   12   15 1
  25   14   46 1
  26   15   16 1
  27   15   19 1
  28   15   47 1
  29   16   17 1
  30   16   48 1
  31   16   49 1
  32   17   18 1
  33   17   50 1
  34   17   51 1
  35   18   52 1
  36   18   53 1
  37   18   54 1
  38   19   21 1
  39   20   21 ar
  40   20   25 ar
  41   20   55 1
  42   21   22 ar
  43   22   23 ar
  44   22   56 1
  45   23   24 ar
  46   23   57 1
  47   24   25 ar
  48   24   26 1
  49   26   27 1
  50   26   30 1
  51   27   28 2
  52   28   29 1
  53   28   58 1
  54   29   30 2
  55   29   31 1
  56   30   59 1
  57   31   32 ar
  58   31   36 ar
  59   32   33 ar
  60   32   60 1
  61   33   34 ar
  62   33   61 1
  63   34   35 ar
  64   34   62 1
  65   35   36 ar
  66   35   63 1
  67   36   64 1

#	End of record

