#	Name: ASD01814063
#	Creating user name:	WinNT
#	Creation time:	15. 06. 2019 19:31

#	Modifying user name:	WinNT
#	Modification time:	15. 06. 2019 19:31

#	Program:	/corina/corina34_cracker 3.40 0067  02.08.2006

@<TRIPOS>MOLECULE
ASD01814063
  42   45    0    0    0
SMALL
NO_CHARGES


@<TRIPOS>ATOM
   1 C1             1.1552     2.2511    -0.5134 C.ar    
   2 C2             0.7789     0.9158    -0.4984 C.ar    
   3 C3             1.7215    -0.0800    -0.3469 C.ar    
   4 C4             3.0686     0.2527    -0.2071 C.ar    
   5 C5             3.4451     1.6060    -0.2229 C.ar    
   6 C6             2.4802     2.6015    -0.3768 C.ar    
   7 N7             4.0210    -0.7324    -0.0539 N.pl3   
   8 C8             5.3254    -0.4650     0.0853 C.2     
   9 C9             5.8157     0.8256     0.0858 C.2     
  10 C10            4.8729     1.9443    -0.0741 C.2     
  11 O11            5.2555     3.1012    -0.0806 O.2     
  12 C12            7.2551     1.0780     0.2423 C.2     
  13 O13            7.7217     2.3427     0.2412 O.3     
  14 O14            8.0249     0.1462     0.3729 O.2     
  15 C15            3.5871    -2.1316    -0.0427 C.3     
  16 C16            3.4445    -2.6248    -1.4595 C.ar    
  17 C17            4.5266    -2.5716    -2.3222 C.ar    
  18 C18            4.3972    -3.0240    -3.6234 C.ar    
  19 C19            3.1823    -3.5308    -4.0622 C.ar    
  20 C20            2.0998    -3.5824    -3.1940 C.ar    
  21 C21            2.2353    -3.1348    -1.8945 C.ar    
  22 N22            3.0478    -3.9896    -5.3801 N.pl3   
  23 F23            1.3401    -1.3759    -0.3337 F       
  24 C24            1.9106    -4.5083    -5.9306 C.2     
  25 C25            2.1742    -4.8351    -7.2121 C.2     
  26 C26            3.5217    -4.5072    -7.4637 C.2     
  27 C27            4.0304    -3.9867    -6.3285 C.2     
  28 F28            5.7085    -2.0774    -1.8933 F       
  29 H29            0.4062     3.0192    -0.6373 H       
  30 H30           -0.2632     0.6532    -0.6060 H       
  31 H31            2.7707     3.6417    -0.3892 H       
  32 H32            6.0172    -1.2862     0.2015 H       
  33 H33            8.6758     2.4587     0.3472 H       
  34 H34            4.3272    -2.7374     0.4802 H       
  35 H35            2.6272    -2.2102     0.4677 H       
  36 H36            5.2407    -2.9824    -4.2967 H       
  37 H37            1.1532    -3.9762    -3.5337 H       
  38 H38            1.3931    -3.1755    -1.2195 H       
  39 H39            0.9638    -4.6349    -5.4267 H       
  40 H40            1.4799    -5.2687    -7.9166 H       
  41 H41            4.0489    -4.6436    -8.3964 H       
  42 H42            5.0423    -3.6351    -6.1909 H       
@<TRIPOS>BOND
   1    1    2 ar
   2    1    6 ar
   3    1   29 1
   4    2    3 ar
   5    2   30 1
   6    3    4 ar
   7    3   23 1
   8    4    5 ar
   9    4    7 1
  10    5    6 ar
  11    5   10 1
  12    6   31 1
  13    7    8 1
  14    7   15 1
  15    8    9 2
  16    8   32 1
  17    9   10 1
  18    9   12 1
  19   10   11 2
  20   12   13 1
  21   12   14 2
  22   13   33 1
  23   15   16 1
  24   15   34 1
  25   15   35 1
  26   16   17 ar
  27   16   21 ar
  28   17   18 ar
  29   17   28 1
  30   18   19 ar
  31   18   36 1
  32   19   20 ar
  33   19   22 1
  34   20   21 ar
  35   20   37 1
  36   21   38 1
  37   22   24 1
  38   22   27 1
  39   24   25 2
  40   24   39 1
  41   25   26 1
  42   25   40 1
  43   26   27 2
  44   26   41 1
  45   27   42 1

#	End of record

