#	Name: ASD01810408
#	Creating user name:	WinNT
#	Creation time:	15. 06. 2019 19:24

#	Modifying user name:	WinNT
#	Modification time:	15. 06. 2019 19:24

#	Program:	/corina/corina34_cracker 3.40 0067  02.08.2006

@<TRIPOS>MOLECULE
ASD01810408
  38   40    0    0    0
SMALL
NO_CHARGES


@<TRIPOS>ATOM
   1 C1            -0.0180     1.4732     0.0101 C.2     
   2 C2             0.0021    -0.0041     0.0020 C.ar    
   3 C3             1.2177    -0.6864    -0.0133 C.ar    
   4 C4             1.2275    -2.0787    -0.0203 C.ar    
   5 C5             0.0214    -2.7826    -0.0121 C.ar    
   6 C6            -1.1794    -2.1012     0.0025 C.ar    
   7 C7            -1.1970    -0.7207     0.0155 C.ar    
   8 O8             1.0256     2.0948     0.0035 O.2     
   9 O9            -1.1936     2.1308     0.0193 O.3     
  10 N10            3.9226    -4.4023    -0.0600 N.2     
  11 N11            2.6696    -4.1159    -0.0456 N.2     
  12 C12            2.5130    -2.8109    -0.0370 C.2     
  13 N13            3.7649    -2.2580    -0.0469 N.pl3   
  14 C14            4.6328    -3.3061    -0.0615 C.2     
  15 O15            7.7075    -1.4019    -0.1593 O.3     
  16 C16            6.6076    -1.9813    -0.8709 C.3     
  17 C17            6.1371    -3.2181    -0.0757 C.3     
  18 C18            6.6871    -2.9242     1.3467 C.3     
  19 C19            8.0068    -2.1877     1.0053 C.3     
  20 C20            0.0306    -4.2895    -0.0198 C.3     
  21 C21           -1.1373     3.5817     0.0269 C.3     
  22 H22            2.1478    -0.1374    -0.0199 H       
  23 H23           -2.1092    -2.6507     0.0081 H       
  24 H24           -2.1396    -0.1938     0.0318 H       
  25 H25            3.9876    -1.3139    -0.0447 H       
  26 H26            5.7947    -1.2592    -0.9467 H       
  27 H27            6.9299    -2.2831    -1.8675 H       
  28 H28            6.5735    -4.1302    -0.4829 H       
  29 H29            6.0092    -2.2778     1.9041 H       
  30 H30            6.8823    -3.8482     1.8910 H       
  31 H31            8.7952    -2.9071     0.7840 H       
  32 H32            8.3041    -1.5417     1.8314 H       
  33 H33            0.0428    -4.6580     1.0060 H       
  34 H34           -0.8621    -4.6557    -0.5268 H       
  35 H35            0.9177    -4.6448    -0.5441 H       
  36 H36           -0.6055     3.9200     0.9162 H       
  37 H37           -0.6140     3.9297    -0.8637 H       
  38 H38           -2.1501     3.9846     0.0339 H       
@<TRIPOS>BOND
   1    1    2 1
   2    1    8 2
   3    1    9 1
   4    2    3 ar
   5    2    7 ar
   6    3    4 ar
   7    3   22 1
   8    4    5 ar
   9    4   12 1
  10    5    6 ar
  11    5   20 1
  12    6    7 ar
  13    6   23 1
  14    7   24 1
  15    9   21 1
  16   10   11 1
  17   10   14 2
  18   11   12 2
  19   12   13 1
  20   13   14 1
  21   13   25 1
  22   14   17 1
  23   15   16 1
  24   15   19 1
  25   16   17 1
  26   16   26 1
  27   16   27 1
  28   17   18 1
  29   17   28 1
  30   18   19 1
  31   18   29 1
  32   18   30 1
  33   19   31 1
  34   19   32 1
  35   20   33 1
  36   20   34 1
  37   20   35 1
  38   21   36 1
  39   21   37 1
  40   21   38 1

#	End of record

