#	Name: ASD03730218
#	Creating user name:	WinNT
#	Creation time:	15. 06. 2019 20:44

#	Modifying user name:	WinNT
#	Modification time:	15. 06. 2019 20:44

#	Program:	/corina/corina34_cracker 3.40 0067  02.08.2006

@<TRIPOS>MOLECULE
ASD03730218
  65   70    0    0    0
SMALL
NO_CHARGES


@<TRIPOS>ATOM
   1 O1            -0.4572     1.1301     1.2026 O.3     
   2 C2            -0.3877    -0.3063     1.2756 C.3     
   3 O3             0.7087    -0.6406     0.4044 O.3     
   4 C4             1.5277     0.4522     0.4119 C.ar    
   5 C5             0.8092     1.5414     0.8998 C.ar    
   6 C6             2.8505     0.6075     0.0384 C.ar    
   7 C7             3.4708     1.8490     0.1406 C.ar    
   8 C8             2.7391     2.9329     0.6165 C.ar    
   9 C9             1.4227     2.7790     0.9983 C.ar    
  10 O10            4.7535     2.2089    -0.1514 O.3     
  11 C11            3.6604     4.1226     0.5774 C.3     
  12 C12            4.8220     3.6400    -0.3023 C.3     
  13 N13            3.0802     6.3024     0.9429 N.am    
  14 C14            2.9936     5.3397     0.0034 C.2     
  15 C15            4.1253     4.5314     1.9433 C.ar    
  16 C16            4.8009     3.8750     2.9631 C.ar    
  17 C17            5.0945     4.5509     4.1474 C.ar    
  18 C18            4.7102     5.8687     4.2962 C.ar    
  19 C19            4.0385     6.5206     3.2820 C.ar    
  20 C20            3.7392     5.8587     2.0924 C.ar    
  21 O21            2.4784     5.4372    -1.0903 O.2     
  22 C22            2.5457     7.6565     0.7780 C.3     
  23 C23            1.1002     7.6985     1.2774 C.3     
  24 C24            0.5419     9.1125     1.1052 C.3     
  25 C25           -0.9036     9.1546     1.6047 C.3     
  26 C26           -1.4618    10.5686     1.4324 C.3     
  27 C27            5.2090     2.4588     2.7940 C.ar    
  28 C28            6.1282     2.1106     1.8055 C.ar    
  29 C29            6.5065     0.7940     1.6503 C.ar    
  30 C30            5.9720    -0.1860     2.4789 C.ar    
  31 C31            5.0549     0.1591     3.4650 C.ar    
  32 C32            4.6783     1.4752     3.6272 C.ar    
  33 N33            6.3563    -1.5183     2.3201 N.pl3   
  34 C34            7.2206    -1.9030     1.2016 C.3     
  35 C35            5.8953    -2.5320     3.2720 C.3     
  36 H36           -0.1781    -0.6282     2.2957 H       
  37 H37           -1.3138    -0.7534     0.9145 H       
  38 H38            3.4056    -0.2405    -0.3348 H       
  39 H39            0.8687     3.6261     1.3751 H       
  40 H40            5.7730     4.0232     0.0677 H       
  41 H41            4.6656     3.9275    -1.3420 H       
  42 H42            5.6203     4.0459     4.9442 H       
  43 H43            4.9364     6.3929     5.2129 H       
  44 H44            3.7430     7.5514     3.4109 H       
  45 H45            3.1495     8.3580     1.3536 H       
  46 H46            2.5741     7.9324    -0.2761 H       
  47 H47            0.4963     6.9969     0.7018 H       
  48 H48            1.0718     7.4225     2.3316 H       
  49 H49            1.1458     9.8141     1.6808 H       
  50 H50            0.5703     9.3885     0.0511 H       
  51 H51           -1.5074     8.4530     1.0291 H       
  52 H52           -0.9320     8.8786     2.6588 H       
  53 H53           -0.8580    11.2702     2.0080 H       
  54 H54           -1.4335    10.8446     0.3783 H       
  55 H55           -2.4917    10.5986     1.7882 H       
  56 H56            6.5434     2.8716     1.1614 H       
  57 H57            7.2183     0.5238     0.8844 H       
  58 H58            4.6403    -0.6039     4.1072 H       
  59 H59            3.9695     1.7436     4.3966 H       
  60 H60            8.2644    -1.8286     1.5067 H       
  61 H61            7.0001    -2.9294     0.9083 H       
  62 H62            7.0405    -1.2373     0.3575 H       
  63 H63            5.3477    -2.0485     4.0809 H       
  64 H64            5.2408    -3.2386     2.7616 H       
  65 H65            6.7545    -3.0632     3.6815 H       
@<TRIPOS>BOND
   1    1    2 1
   2    1    5 1
   3    2    3 1
   4    2   36 1
   5    2   37 1
   6    3    4 1
   7    4    5 ar
   8    4    6 ar
   9    5    9 ar
  10    6    7 ar
  11    6   38 1
  12    7    8 ar
  13    7   10 1
  14    8    9 ar
  15    8   11 1
  16    9   39 1
  17   10   12 1
  18   11   12 1
  19   11   14 1
  20   11   15 1
  21   12   40 1
  22   12   41 1
  23   13   14 am
  24   13   20 1
  25   13   22 1
  26   14   21 2
  27   15   16 ar
  28   15   20 ar
  29   16   17 ar
  30   16   27 1
  31   17   18 ar
  32   17   42 1
  33   18   19 ar
  34   18   43 1
  35   19   20 ar
  36   19   44 1
  37   22   23 1
  38   22   45 1
  39   22   46 1
  40   23   24 1
  41   23   47 1
  42   23   48 1
  43   24   25 1
  44   24   49 1
  45   24   50 1
  46   25   26 1
  47   25   51 1
  48   25   52 1
  49   26   53 1
  50   26   54 1
  51   26   55 1
  52   27   28 ar
  53   27   32 ar
  54   28   29 ar
  55   28   56 1
  56   29   30 ar
  57   29   57 1
  58   30   31 ar
  59   30   33 1
  60   31   32 ar
  61   31   58 1
  62   32   59 1
  63   33   34 1
  64   33   35 1
  65   34   60 1
  66   34   61 1
  67   34   62 1
  68   35   63 1
  69   35   64 1
  70   35   65 1

#	End of record

