#	Name: ASD05872035
#	Creating user name:	WinNT
#	Creation time:	15. 06. 2019 21:04

#	Modifying user name:	WinNT
#	Modification time:	15. 06. 2019 21:04

#	Program:	/corina/corina34_cracker 3.40 0067  02.08.2006

@<TRIPOS>MOLECULE
ASD05872035
  73   77    0    0    0
SMALL
NO_CHARGES


@<TRIPOS>ATOM
   1 C1            -0.0168     1.3910     0.0097 C.ar    
   2 C2             0.0021    -0.0041     0.0020 C.ar    
   3 C3            -1.1844    -0.7121     0.0100 C.ar    
   4 C4            -2.3952    -0.0265     0.0257 C.ar    
   5 C5            -2.4170     1.3755     0.0334 C.ar    
   6 C6            -1.2170     2.0761     0.0306 C.ar    
   7 C7            -3.8126    -0.4422     0.0376 C.2     
   8 C8            -4.5349     0.7104     0.0509 C.2     
   9 O9            -3.7097     1.7640     0.0484 O.3     
  10 O10            1.1546     2.0819     0.0022 O.3     
  11 O11            1.1896    -0.6677    -0.0138 O.3     
  12 C12           -6.0398     0.7892     0.0655 C.3     
  13 O13           -6.5028     0.8064     1.4173 O.3     
  14 C14           -7.8479     0.8759     1.6086 C.ar    
  15 C15           -8.3678     0.8964     2.9032 C.ar    
  16 C16           -9.7325     0.9668     3.1099 C.ar    
  17 C17          -10.5980     1.0183     2.0240 C.ar    
  18 C18          -10.0729     0.9980     0.7241 C.ar    
  19 C19           -8.6980     0.9319     0.5207 C.ar    
  20 O20          -11.9421     1.0898     1.9211 O.3     
  21 C21          -12.3321     1.1177     0.6416 C.2     
  22 C22          -11.2438     1.0649    -0.1744 C.2     
  23 C23          -13.7625     1.1963     0.1737 C.3     
  24 C24          -11.2353     1.0729    -1.6434 C.2     
  25 O25          -11.1768     2.1276    -2.2453 O.2     
  26 O26           -7.5253     0.8463     3.9697 O.3     
  27 C27           -4.3346    -1.8171     0.0349 C.2     
  28 O28           -4.5399    -2.3918     1.0873 O.2     
  29 C29            1.0667     3.5081     0.0107 C.3     
  30 C30           -8.1207     0.8707     5.2685 C.3     
  31 N31           -4.5855    -2.4405    -1.1334 N.am    
  32 C32           -5.1080    -3.8158    -1.1612 C.3     
  33 C33           -6.3335    -3.8489    -2.0815 C.3     
  34 O34           -5.9892    -3.2749    -3.3447 O.3     
  35 C35           -5.6082    -1.8986    -3.2778 C.3     
  36 C36           -4.3509    -1.7636    -2.4187 C.3     
  37 O37          -11.2924    -0.0895    -2.3241 O.3     
  38 C38          -11.3506    -1.4144    -4.3665 C.3     
  39 C39          -11.2801    -0.0057    -3.7737 C.3     
  40 O40            1.7250    -0.9663     1.3212 O.3     
  41 S41            3.0535    -1.7087     1.3035 S.o2    
  42 O42            3.3189    -2.0884     2.6469 O.2     
  43 O43            2.9784    -2.6402     0.2330 O.2     
  44 O44            4.1279    -0.7006     0.9215 O.3     
  45 Na45           4.6114     0.5600     2.3834 Du      
  46 H46           -1.1721    -1.7920     0.0037 H       
  47 H47           -1.2222     3.1561     0.0368 H       
  48 H48           -6.3609     1.6999    -0.4401 H       
  49 H49           -6.4540    -0.0776    -0.4494 H       
  50 H50          -10.1262     0.9815     4.1154 H       
  51 H51           -8.2977     0.9165    -0.4823 H       
  52 H52          -14.4263     1.2271     1.0377 H       
  53 H53          -13.9006     2.0980    -0.4230 H       
  54 H54          -13.9952     0.3206    -0.4322 H       
  55 H55            2.0700     3.9341     0.0034 H       
  56 H56            0.5230     3.8439    -0.8723 H       
  57 H57            0.5400     3.8344     0.9075 H       
  58 H58           -8.7853     0.0140     5.3797 H       
  59 H59           -7.3394     0.8255     6.0272 H       
  60 H60           -8.6915     1.7914     5.3892 H       
  61 H61           -4.3431    -4.4914    -1.5441 H       
  62 H62           -5.3963    -4.1194    -0.1548 H       
  63 H63           -6.6529    -4.8811    -2.2256 H       
  64 H64           -7.1435    -3.2761    -1.6299 H       
  65 H65           -5.4058    -1.5276    -4.2826 H       
  66 H66           -6.4156    -1.3187    -2.8306 H       
  67 H67           -4.1357    -0.7091    -2.2461 H       
  68 H68           -3.5077    -2.2327    -2.9258 H       
  69 H69          -10.4916    -1.9942    -4.0287 H       
  70 H70          -12.2691    -1.9011    -4.0385 H       
  71 H71          -11.3413    -1.3516    -5.4547 H       
  72 H72          -12.1391     0.5740    -4.1115 H       
  73 H73          -10.3616     0.4810    -4.1017 H       
@<TRIPOS>BOND
   1    1    2 ar
   2    1   10 1
   3    1    6 ar
   4    2    3 ar
   5    2   11 1
   6    3    4 ar
   7    3   46 1
   8    4    5 ar
   9    4    7 1
  10    5    6 ar
  11    5    9 1
  12    6   47 1
  13    7    8 2
  14    7   27 1
  15    8    9 1
  16    8   12 1
  17   10   29 1
  18   11   40 1
  19   12   13 1
  20   12   48 1
  21   12   49 1
  22   13   14 1
  23   14   15 ar
  24   14   19 ar
  25   15   16 ar
  26   15   26 1
  27   16   17 ar
  28   16   50 1
  29   17   18 ar
  30   17   20 1
  31   18   19 ar
  32   18   22 1
  33   19   51 1
  34   20   21 1
  35   21   22 2
  36   21   23 1
  37   22   24 1
  38   23   52 1
  39   23   53 1
  40   23   54 1
  41   24   25 2
  42   24   37 1
  43   26   30 1
  44   27   28 2
  45   27   31 am
  46   29   55 1
  47   29   56 1
  48   29   57 1
  49   30   58 1
  50   30   59 1
  51   30   60 1
  52   31   32 1
  53   31   36 1
  54   32   33 1
  55   32   61 1
  56   32   62 1
  57   33   34 1
  58   33   63 1
  59   33   64 1
  60   34   35 1
  61   35   36 1
  62   35   65 1
  63   35   66 1
  64   36   67 1
  65   36   68 1
  66   37   39 1
  67   38   39 1
  68   38   69 1
  69   38   70 1
  70   38   71 1
  71   39   72 1
  72   39   73 1
  73   40   41 1
  74   41   42 2
  75   41   43 2
  76   41   44 1
  77   44   45 1

#	End of record

