#	Name: ASD05720016
#	Creating user name:	WinNT
#	Creation time:	15. 06. 2019 21:01

#	Modifying user name:	WinNT
#	Modification time:	15. 06. 2019 21:01

#	Program:	/corina/corina34_cracker 3.40 0067  02.08.2006

@<TRIPOS>MOLECULE
ASD05720016
  60   62    0    0    0
SMALL
NO_CHARGES


@<TRIPOS>ATOM
   1 N1             0.3813     1.2570    -0.8684 N.pl3   
   2 N2             0.2243    -0.0840    -0.4818 N.2     
   3 C3             1.0056    -0.2781     0.5499 C.2     
   4 N4             1.6422     0.8531     0.8356 N.2     
   5 C5             1.2787     1.7953    -0.0110 C.2     
   6 C6            -0.2879     1.9354    -1.9812 C.3     
   7 O7            -1.5688     2.4026    -1.5533 O.3     
   8 C8            -2.3085     3.0828    -2.5692 C.3     
   9 C9            -3.6554     3.5361    -2.0022 C.3     
  10 Si10          -4.6198     4.4230    -3.3267 Si      
  11 C11           -4.9064     3.2713    -4.7627 C.3     
  12 C12           -6.2598     4.9750    -2.6364 C.3     
  13 C13           -3.6576     5.9096    -3.9054 C.3     
  14 C14            1.7651     3.1920    -0.0218 C.ar    
  15 C15            3.1350     3.4561     0.0631 C.ar    
  16 C16            3.5866     4.7580     0.0529 C.ar    
  17 C17            2.6768     5.8113    -0.0421 C.ar    
  18 C18            1.3095     5.5476    -0.1263 C.ar    
  19 C19            0.8566     4.2473    -0.1226 C.ar    
  20 O20            2.4072     8.4919    -0.1446 O.3     
  21 B21            3.1919     7.2943    -0.0536 Du      
  22 O22            4.5505     7.7488     0.0251 O.3     
  23 C23            4.4977     8.9122     0.8774 C.3     
  24 C24            3.0446     9.4160     0.7624 C.3     
  25 C25            3.0157    10.8333     0.1868 C.3     
  26 C26            2.3582     9.3804     2.1293 C.3     
  27 C27            4.8159     8.5282     2.3238 C.3     
  28 C28            5.4734     9.9811     0.3813 C.3     
  29 Cl29           4.2666     2.1451     0.1818 Cl      
  30 H30            1.1153    -1.2098     1.0849 H       
  31 H31            0.3170     2.7813    -2.3076 H       
  32 H32           -0.4137     1.2377    -2.8092 H       
  33 H33           -1.7456     3.9526    -2.9077 H       
  34 H34           -2.4762     2.4090    -3.4093 H       
  35 H35           -4.2183     2.6663    -1.6637 H       
  36 H36           -3.4877     4.2100    -1.1621 H       
  37 H37           -5.4694     2.4015    -4.4241 H       
  38 H38           -5.4707     3.7902    -5.5376 H       
  39 H39           -3.9469     2.9483    -5.1666 H       
  40 H40           -6.0921     5.6488    -1.7962 H       
  41 H41           -6.8241     5.4938    -3.4113 H       
  42 H42           -6.8228     4.1052    -2.2978 H       
  43 H43           -2.6981     5.5867    -4.3093 H       
  44 H44           -4.2219     6.4285    -4.6803 H       
  45 H45           -3.4899     6.5835    -3.0652 H       
  46 H46            4.6449     4.9629     0.1188 H       
  47 H47            0.6060     6.3639    -0.1991 H       
  48 H48           -0.2018     4.0439    -0.1927 H       
  49 H49            1.9814    11.1522     0.0578 H       
  50 H50            3.5230    11.5137     0.8709 H       
  51 H51            3.5223    10.8439    -0.7783 H       
  52 H52            2.4019     8.3682     2.5315 H       
  53 H53            2.8669    10.0638     2.8092 H       
  54 H54            1.3169     9.6837     2.0210 H       
  55 H55            5.8253     8.1204     2.3779 H       
  56 H56            4.7466     9.4120     2.9580 H       
  57 H57            4.1024     7.7786     2.6661 H       
  58 H58            5.2228    10.2543    -0.6437 H       
  59 H59            5.4028    10.8619     1.0196 H       
  60 H60            6.4898     9.5889     0.4147 H       
@<TRIPOS>BOND
   1    1    2 1
   2    1    5 1
   3    1    6 1
   4    2    3 2
   5    3    4 1
   6    3   30 1
   7    4    5 2
   8    5   14 1
   9    6    7 1
  10    6   31 1
  11    6   32 1
  12    7    8 1
  13    8    9 1
  14    8   33 1
  15    8   34 1
  16    9   10 1
  17    9   35 1
  18    9   36 1
  19   10   11 1
  20   10   12 1
  21   10   13 1
  22   11   37 1
  23   11   38 1
  24   11   39 1
  25   12   40 1
  26   12   41 1
  27   12   42 1
  28   13   43 1
  29   13   44 1
  30   13   45 1
  31   14   15 ar
  32   14   19 ar
  33   15   16 ar
  34   15   29 1
  35   16   17 ar
  36   16   46 1
  37   17   18 ar
  38   17   21 1
  39   18   19 ar
  40   18   47 1
  41   19   48 1
  42   20   21 1
  43   20   24 1
  44   21   22 1
  45   22   23 1
  46   23   24 1
  47   23   27 1
  48   23   28 1
  49   24   25 1
  50   24   26 1
  51   25   49 1
  52   25   50 1
  53   25   51 1
  54   26   52 1
  55   26   53 1
  56   26   54 1
  57   27   55 1
  58   27   56 1
  59   27   57 1
  60   28   58 1
  61   28   59 1
  62   28   60 1

#	End of record

