#	Name: ASD05580004
#	Creating user name:	WinNT
#	Creation time:	15. 06. 2019 21:01

#	Modifying user name:	WinNT
#	Modification time:	15. 06. 2019 21:01

#	Program:	/corina/corina34_cracker 3.40 0067  02.08.2006

@<TRIPOS>MOLECULE
ASD05580004
  46   47    0    0    0
SMALL
NO_CHARGES


@<TRIPOS>ATOM
   1 C1            -1.1344     1.7223     1.3256 C.ar    
   2 C2            -2.1362     0.8016     1.5733 C.ar    
   3 C3            -2.7380     0.1348     0.5244 C.ar    
   4 C4            -2.3361     0.3898    -0.7807 C.ar    
   5 C5            -1.3295     1.3153    -1.0260 C.ar    
   6 C6            -0.7359     1.9827     0.0272 C.ar    
   7 C7            -0.4799     2.4480     2.4728 C.3     
   8 C8            -0.8899     1.5948    -2.4401 C.3     
   9 C9            -3.8292    -0.8687     0.7953 C.3     
  10 N10           -2.9428    -0.2836    -1.8445 N.pl3   
  11 C11           -4.2589    -0.0049    -2.1814 C.cat   
  12 N12           -4.8743    -0.4725    -3.2229 N.pl3   
  13 C13           -6.1309    -0.1021    -3.3903 C.2     
  14 C14           -6.5985     0.7161    -2.4466 C.2     
  15 S15           -5.3089     0.9993    -1.2802 S.3     
  16 C16           -4.2066    -1.3692    -4.1697 C.3     
  17 C17           -4.4118    -2.8200    -3.7295 C.3     
  18 C18           -3.7145    -3.7565    -4.7183 C.3     
  19 O19           -3.9062    -5.1116    -4.3071 O.3     
  20 C20           -3.2911    -6.0726    -5.1675 C.3     
  21 C21           -6.9686    -0.5661    -4.5539 C.3     
  22 H22           -2.4479     0.6035     2.5882 H       
  23 H23            0.0465     2.7026    -0.1627 H       
  24 H24            0.3811     1.8769     2.8202 H       
  25 H25           -0.1524     3.4329     2.1401 H       
  26 H26           -1.1951     2.5590     3.2879 H       
  27 H27           -1.2065     2.5974    -2.7275 H       
  28 H28            0.1960     1.5244    -2.5036 H       
  29 H29           -1.3412     0.8647    -3.1119 H       
  30 H30           -4.7957    -0.3648     0.7901 H       
  31 H31           -3.8160    -1.6373     0.0225 H       
  32 H32           -3.6651    -1.3299     1.7692 H       
  33 H33           -2.4433    -0.9458    -2.3473 H       
  34 H34           -7.5951     1.1298    -2.4029 H       
  35 H35           -4.6298    -1.2279    -5.1642 H       
  36 H36           -3.1404    -1.1440    -4.1932 H       
  37 H37           -3.9886    -2.9613    -2.7350 H       
  38 H38           -5.4780    -3.0452    -3.7059 H       
  39 H39           -4.1377    -3.6152    -5.7128 H       
  40 H40           -2.6483    -3.5313    -4.7418 H       
  41 H41           -3.7056    -5.9793    -6.1713 H       
  42 H42           -2.2161    -5.8954    -5.2004 H       
  43 H43           -3.4826    -7.0759    -4.7871 H       
  44 H44           -7.4827    -1.4892    -4.2862 H       
  45 H45           -7.7032     0.2003    -4.8012 H       
  46 H46           -6.3259    -0.7449    -5.4158 H       
@<TRIPOS>BOND
   1    1    2 ar
   2    1    7 1
   3    1    6 ar
   4    2    3 ar
   5    2   22 1
   6    3    4 ar
   7    3    9 1
   8    4    5 ar
   9    4   10 1
  10    5    6 ar
  11    5    8 1
  12    6   23 1
  13    7   24 1
  14    7   25 1
  15    7   26 1
  16    8   27 1
  17    8   28 1
  18    8   29 1
  19    9   30 1
  20    9   31 1
  21    9   32 1
  22   10   11 ar
  23   10   33 1
  24   11   12 ar
  25   11   15 1
  26   12   13 1
  27   12   16 1
  28   13   14 2
  29   13   21 1
  30   14   15 1
  31   14   34 1
  32   16   17 1
  33   16   35 1
  34   16   36 1
  35   17   18 1
  36   17   37 1
  37   17   38 1
  38   18   19 1
  39   18   39 1
  40   18   40 1
  41   19   20 1
  42   20   41 1
  43   20   42 1
  44   20   43 1
  45   21   44 1
  46   21   45 1
  47   21   46 1

#	End of record

