#	Name: ASD00960024
#	Creating user name:	WinNT
#	Creation time:	15. 06. 2019 18:53

#	Modifying user name:	WinNT
#	Modification time:	15. 06. 2019 18:53

#	Program:	/corina/corina34_cracker 3.40 0067  02.08.2006

@<TRIPOS>MOLECULE
ASD00960024
  35   37    0    0    0
SMALL
NO_CHARGES


@<TRIPOS>ATOM
   1 F1             1.3189    -0.4764    -0.0131 F       
   2 C2            -0.0189     1.5409     0.0105 C.3     
   3 C3             0.0021    -0.0041     0.0020 C.3     
   4 C4            -0.6985    -0.3962     1.3218 C.3     
   5 O5            -1.5292     0.7387     1.6500 O.3     
   6 C6            -0.7297     1.8993     1.3344 C.3     
   7 C7            -1.6237     3.1262     1.1437 C.3     
   8 C8            -1.5461    -1.6259     1.1205 C.2     
   9 C9            -1.1028    -2.9090     1.1904 C.2     
  10 N10           -2.8643    -1.6294     0.8485 N.pl3   
  11 C11           -3.2853    -2.9404     0.7334 C.2     
  12 C12           -2.1880    -3.7520     0.9461 C.2     
  13 N13           -3.8108    -0.6096     0.6759 N.2     
  14 C14           -5.0531    -0.9090     0.4138 C.2     
  15 N15           -5.4733    -2.1678     0.3000 N.2     
  16 C16           -4.6471    -3.1902     0.4471 C.2     
  17 O17           -2.2379     3.4662     2.3884 O.3     
  18 N18           -5.1091    -4.4851     0.3239 N.pl3   
  19 C19           -0.7736    -0.5441    -1.2011 C.3     
  20 O20            1.3126     2.0597     0.0006 O.3     
  21 *21            1.4358     3.3108    -0.6380 Du      
  22 H22           -0.5818     1.9199    -0.8424 H       
  23 H23            0.0385    -0.5666     2.1065 H       
  24 H24            0.0026     2.0810     2.1211 H       
  25 H25           -1.0207     3.9646     0.7951 H       
  26 H26           -2.3953     2.9025     0.4070 H       
  27 H27           -0.0899    -3.2209     1.3982 H       
  28 H28           -2.1725    -4.8317     0.9264 H       
  29 H29           -5.7660    -0.1080     0.2848 H       
  30 H30           -2.8202     4.2368     2.3421 H       
  31 H31           -6.0448    -4.6497     0.1283 H       
  32 H32           -4.4980    -5.2305     0.4330 H       
  33 H33           -0.3020    -0.2000    -2.1216 H       
  34 H34           -0.7699    -1.6338    -1.1764 H       
  35 H35           -1.8014    -0.1833    -1.1625 H       
@<TRIPOS>BOND
   1    1    3 1
   2    2    3 1
   3    2   20 1
   4    2    6 1
   5    2   22 1
   6    3   19 1
   7    3    4 1
   8    4    5 1
   9    4    8 1
  10    4   23 1
  11    5    6 1
  12    6    7 1
  13    6   24 1
  14    7   17 1
  15    7   25 1
  16    7   26 1
  17    8    9 2
  18    8   10 1
  19    9   12 1
  20    9   27 1
  21   10   11 1
  22   10   13 1
  23   11   12 2
  24   11   16 1
  25   12   28 1
  26   13   14 2
  27   14   15 1
  28   14   29 1
  29   15   16 2
  30   16   18 1
  31   17   30 1
  32   18   31 1
  33   18   32 1
  34   19   33 1
  35   19   34 1
  36   19   35 1
  37   20   21 1

#	End of record

