#	Name: ASD00170695
#	Creating user name:	WinNT
#	Creation time:	15. 06. 2019 18:32

#	Modifying user name:	WinNT
#	Modification time:	15. 06. 2019 18:32

#	Program:	/corina/corina34_cracker 3.40 0067  02.08.2006

@<TRIPOS>MOLECULE
ASD00170695
  41   42    0    0    0
SMALL
NO_CHARGES


@<TRIPOS>ATOM
   1 N1             0.0225     1.3137     0.5040 N.pl3   
   2 C2             0.0180    -0.0400     0.2348 C.2     
   3 S3             1.4161    -0.9899     0.0159 S.3     
   4 C4             0.4793    -2.4485    -0.2536 C.2     
   5 C5            -0.8191    -2.1979    -0.1757 C.2     
   6 C6            -1.1155    -0.8098     0.1120 C.2     
   7 C7            -2.4724    -0.2820     0.2481 C.2     
   8 O8            -2.9676    -0.1533     1.3531 O.2     
   9 C9            -3.2435     0.0956    -0.9566 C.ar    
  10 C10           -2.6416     0.0552    -2.2150 C.ar    
  11 C11           -3.3665     0.4082    -3.3347 C.ar    
  12 C12           -4.6871     0.8014    -3.2118 C.ar    
  13 C13           -5.2898     0.8441    -1.9668 C.ar    
  14 C14           -4.5780     0.4882    -0.8401 C.ar    
  15 C15           -6.7287     1.2742    -1.8423 C.3     
  16 F16           -7.2363     1.5771    -3.1103 F       
  17 F17           -7.4779     0.2375    -1.2756 F       
  18 F18           -6.8078     2.4072    -1.0255 F       
  19 C19           -1.8803    -3.2516    -0.3620 C.3     
  20 C20           -2.2092    -3.8887     0.9895 C.3     
  21 C21           -2.7217    -2.8130     1.9492 C.3     
  22 C22           -3.2866    -4.9585     0.8004 C.3     
  23 C23           -0.9484    -4.5318     1.5706 C.3     
  24 Br24           1.2234    -4.1504    -0.6083 Br      
  25 H25            0.8623     1.7757     0.6532 H       
  26 H26           -0.8137     1.8038     0.5401 H       
  27 H27           -1.6106    -0.2513    -2.3122 H       
  28 H28           -2.9018     0.3777    -4.3091 H       
  29 H29           -5.2502     1.0767    -4.0913 H       
  30 H30           -5.0494     0.5219     0.1309 H       
  31 H31           -2.7785    -2.7935    -0.7760 H       
  32 H32           -1.5152    -4.0180    -1.0458 H       
  33 H33           -3.6199    -2.3548     1.5353 H       
  34 H34           -2.9560    -3.2669     2.9121 H       
  35 H35           -1.9542    -2.0508     2.0840 H       
  36 H36           -2.9215    -5.7249     0.1167 H       
  37 H37           -3.5209    -5.4124     1.7633 H       
  38 H38           -4.1848    -4.5004     0.3864 H       
  39 H39           -0.1809    -3.7697     1.7053 H       
  40 H40           -1.1828    -4.9857     2.5335 H       
  41 H41           -0.5833    -5.2982     0.8869 H       
@<TRIPOS>BOND
   1    1    2 1
   2    1   25 1
   3    1   26 1
   4    2    3 1
   5    2    6 2
   6    3    4 1
   7    4    5 2
   8    4   24 1
   9    5    6 1
  10    5   19 1
  11    6    7 1
  12    7    8 2
  13    7    9 1
  14    9   10 ar
  15    9   14 ar
  16   10   11 ar
  17   10   27 1
  18   11   12 ar
  19   11   28 1
  20   12   13 ar
  21   12   29 1
  22   13   14 ar
  23   13   15 1
  24   14   30 1
  25   15   16 1
  26   15   17 1
  27   15   18 1
  28   19   20 1
  29   19   31 1
  30   19   32 1
  31   20   21 1
  32   20   22 1
  33   20   23 1
  34   21   33 1
  35   21   34 1
  36   21   35 1
  37   22   36 1
  38   22   37 1
  39   22   38 1
  40   23   39 1
  41   23   40 1
  42   23   41 1

#	End of record

