#	Name: ASD01948317
#	Creating user name:	WinNT
#	Creation time:	15. 06. 2019 20:14

#	Modifying user name:	WinNT
#	Modification time:	15. 06. 2019 20:14

#	Program:	/corina/corina34_cracker 3.40 0067  02.08.2006

@<TRIPOS>MOLECULE
ASD01948317
  50   52    0    0    0
SMALL
NO_CHARGES


@<TRIPOS>ATOM
   1 C1            -0.3684     2.1061    -0.7142 C.2     
   2 N2            -0.5822     0.8646    -1.2381 N.am    
   3 C3             0.4466     0.0754    -1.5984 C.2     
   4 C4             1.9953     1.7774    -0.9107 C.2     
   5 C5             0.8884     2.5789    -0.5428 C.2     
   6 C6             2.8789     4.0015    -2.3481 C.ar    
   7 C7             3.7090     3.4000    -1.4117 C.ar    
   8 N8             3.2903     2.2448    -0.7430 N.pl3   
   9 C9             3.2951     5.1419    -3.0072 C.ar    
  10 C10            4.5377     5.6858    -2.7358 C.ar    
  11 C11            5.3684     5.0902    -1.8037 C.ar    
  12 C12            4.9581     3.9484    -1.1402 C.ar    
  13 N13            1.0930     3.8587    -0.0019 N.am    
  14 S14           -0.2049     4.7934     0.4274 S.o2    
  15 C15           -0.8917     3.9698     1.8904 C.3     
  16 O16            0.2291    -1.0329    -2.0650 O.2     
  17 C17           -1.9547     0.3823    -1.4108 C.3     
  18 F18            5.7690     3.3668    -0.2295 F       
  19 I19            5.1631     7.4155    -3.7389 I       
  20 O20            0.3666     6.0451     0.7821 O.2     
  21 O21           -1.0970     4.6809    -0.6730 O.2     
  22 C22            1.7648     0.5192    -1.4413 C.2     
  23 F23            2.7997    -0.2707    -1.8021 F       
  24 C24            0.0997     3.7061     3.0255 C.3     
  25 C25           -2.4642     0.7797    -2.7976 C.3     
  26 C26           -2.3348     4.3015     2.2757 C.3     
  27 C27           -1.9991     2.9382     1.6658 C.3     
  28 C28            0.6837     5.0341     3.5114 C.3     
  29 N29           -3.8367     0.2974    -2.9703 N.pl3   
  30 O30           -4.6512     0.4454    -2.0769 O.2     
  31 O31           -4.1633    -0.2516    -4.0074 O.2     
  32 H32           -1.2121     2.7207    -0.4371 H       
  33 H33            1.9103     3.5756    -2.5642 H       
  34 H34            3.9056     1.7706    -0.1621 H       
  35 H35            2.6494     5.6095    -3.7358 H       
  36 H36            6.3383     5.5168    -1.5946 H       
  37 H37            1.9945     4.1952     0.1203 H       
  38 H38           -1.9732    -0.7033    -1.3142 H       
  39 H39           -2.5944     0.8259    -0.6478 H       
  40 H40           -0.4148     3.2121     3.8498 H       
  41 H41            0.9044     3.0660     2.6637 H       
  42 H42           -2.4457     1.8652    -2.8942 H       
  43 H43           -1.8245     0.3361    -3.5606 H       
  44 H44           -2.5780     4.3315     3.3378 H       
  45 H45           -2.8715     5.0147     1.6500 H       
  46 H46           -2.3153     2.7547     0.6389 H       
  47 H47           -2.0217     2.0718     2.3268 H       
  48 H48           -0.1272     5.7095     3.7840 H       
  49 H49            1.3163     4.8563     4.3811 H       
  50 H50            1.2780     5.4826     2.7154 H       
@<TRIPOS>BOND
   1    1    2 1
   2    1    5 2
   3    1   32 1
   4    2    3 am
   5    2   17 1
   6    3   22 1
   7    3   16 2
   8    4    5 1
   9    4    8 1
  10    4   22 2
  11    5   13 1
  12    6    7 ar
  13    6    9 ar
  14    6   33 1
  15    7    8 1
  16    7   12 ar
  17    8   34 1
  18    9   10 ar
  19    9   35 1
  20   10   11 ar
  21   10   19 1
  22   11   12 ar
  23   11   36 1
  24   12   18 1
  25   13   14 am
  26   13   37 1
  27   14   15 1
  28   14   20 2
  29   14   21 2
  30   15   24 1
  31   15   26 1
  32   15   27 1
  33   17   25 1
  34   17   38 1
  35   17   39 1
  36   22   23 1
  37   24   28 1
  38   24   40 1
  39   24   41 1
  40   25   29 1
  41   25   42 1
  42   25   43 1
  43   26   27 1
  44   26   44 1
  45   26   45 1
  46   27   46 1
  47   27   47 1
  48   28   48 1
  49   28   49 1
  50   28   50 1
  51   29   30 2
  52   29   31 2

#	End of record

