#	Name: ASD01940142
#	Creating user name:	WinNT
#	Creation time:	15. 06. 2019 20:11

#	Modifying user name:	WinNT
#	Modification time:	15. 06. 2019 20:11

#	Program:	/corina/corina34_cracker 3.40 0067  02.08.2006

@<TRIPOS>MOLECULE
ASD01940142
  40   41    0    0    0
SMALL
NO_CHARGES


@<TRIPOS>ATOM
   1 F1             1.9032     1.5959     2.2851 F       
   2 C2             1.0646     2.1493     1.3820 C.ar    
   3 C3             1.3887     2.1338     0.0318 C.ar    
   4 C4             0.5199     2.7056    -0.8962 C.ar    
   5 C5            -0.6637     3.2873    -0.4673 C.ar    
   6 C6            -0.9811     3.3003     0.8785 C.ar    
   7 C7            -0.1226     2.7279     1.8017 C.ar    
   8 N8             2.5863     1.5451    -0.3965 N.pl3   
   9 N9             0.8421     2.6932    -2.2600 N.am    
  10 C10            2.6329     0.1719    -0.6713 C.ar    
  11 C11            1.4772    -0.5921    -0.5883 C.ar    
  12 C12            1.5227    -1.9460    -0.8590 C.ar    
  13 C13            2.7248    -2.5438    -1.2145 C.ar    
  14 C14            3.8828    -1.7802    -1.2980 C.ar    
  15 C15            3.8366    -0.4248    -1.0329 C.ar    
  16 F16            4.9618     0.3185    -1.1138 F       
  17 F17           -0.4402     2.7385     3.1147 F       
  18 S18            0.4254     3.9759    -3.2210 S.o2    
  19 O19            0.9901     3.6633    -4.4869 O.2     
  20 O20           -0.9809     4.0954    -3.0555 O.2     
  21 C21            1.2768     5.3943    -2.4769 C.3     
  22 O22            0.9873     6.5730    -3.2313 O.3     
  23 C23           -0.3274     7.0909    -3.0186 C.3     
  24 S24            2.7818    -4.2709    -1.5590 S.3     
  25 C25            4.5285    -4.5493    -1.9616 C.3     
  26 H26           -1.3380     3.7308    -1.1850 H       
  27 H27           -1.9033     3.7542     1.2100 H       
  28 H28            3.3828     2.0883    -0.5028 H       
  29 H29            1.3092     1.9333    -2.6411 H       
  30 H30            0.5420    -0.1281    -0.3116 H       
  31 H31            0.6230    -2.5400    -0.7938 H       
  32 H32            4.8177    -2.2449    -1.5744 H       
  33 H33            0.9340     5.5264    -1.4507 H       
  34 H34            2.3520     5.2155    -2.4806 H       
  35 H35           -1.0643     6.3390    -3.3013 H       
  36 H36           -0.4522     7.3441    -1.9658 H       
  37 H37           -0.4686     7.9846    -3.6265 H       
  38 H38            4.8043    -3.9409    -2.8230 H       
  39 H39            5.1469    -4.2717    -1.1080 H       
  40 H40            4.6841    -5.6024    -2.1959 H       
@<TRIPOS>BOND
   1    1    2 1
   2    2    3 ar
   3    2    7 ar
   4    3    4 ar
   5    3    8 1
   6    4    5 ar
   7    4    9 1
   8    5    6 ar
   9    5   26 1
  10    6    7 ar
  11    6   27 1
  12    7   17 1
  13    8   10 1
  14    8   28 1
  15    9   18 am
  16    9   29 1
  17   10   11 ar
  18   10   15 ar
  19   11   12 ar
  20   11   30 1
  21   12   13 ar
  22   12   31 1
  23   13   14 ar
  24   13   24 1
  25   14   15 ar
  26   14   32 1
  27   15   16 1
  28   18   19 2
  29   18   20 2
  30   18   21 1
  31   21   22 1
  32   21   33 1
  33   21   34 1
  34   22   23 1
  35   23   35 1
  36   23   36 1
  37   23   37 1
  38   24   25 1
  39   25   38 1
  40   25   39 1
  41   25   40 1

#	End of record

