#	Name: ASD07930260
#	Creating user name:	WinNT
#	Creation time:	15. 06. 2019 21:12

#	Modifying user name:	WinNT
#	Modification time:	15. 06. 2019 21:12

#	Program:	/corina/corina34_cracker 3.40 0067  02.08.2006

@<TRIPOS>MOLECULE
ASD07930260
  56   60    0    0    0
SMALL
NO_CHARGES


@<TRIPOS>ATOM
   1 C1            -0.0165     1.3638     0.0095 C.2     
   2 C2             0.0021    -0.0041     0.0020 C.2     
   3 C3             1.2948    -0.6930    -0.0137 C.2     
   4 N4             2.4269     0.0320    -0.0184 N.am    
   5 C5             2.3819     1.4078    -0.0126 C.2     
   6 C6             1.1929     2.0698     0.0018 C.2     
   7 C7             3.7400    -0.6270    -0.0278 C.3     
   8 C8             4.6599     0.1585    -0.9744 C.3     
   9 N9             4.7714     1.5377    -0.4785 N.am    
  10 C10            3.6569     2.1587    -0.0238 C.2     
  11 C11            6.0638     2.2277    -0.4763 C.3     
  12 O12            3.7031     3.3090     0.3671 O.2     
  13 O13            1.3435    -1.9113    -0.0219 O.2     
  14 N14           -1.1914    -0.7315     0.0096 N.pl3   
  15 C15           -1.6504    -1.5415    -0.9805 C.2     
  16 N16           -2.7956    -2.0446    -0.6082 N.2     
  17 C17           -3.1078    -1.5843     0.6125 C.2     
  18 C18           -2.1178    -0.7676     1.0201 C.2     
  19 C19           -4.3493    -1.9268     1.3951 C.3     
  20 C20            6.2498     2.9665    -1.8031 C.3     
  21 O21            5.2694     4.0003    -1.9141 O.3     
  22 C22            5.2960     4.7565    -3.0416 C.ar    
  23 C23            6.2443     4.5110    -4.0219 C.ar    
  24 C24            6.2704     5.2811    -5.1687 C.ar    
  25 C25            5.3522     6.3019    -5.3472 C.ar    
  26 C26            4.4024     6.5594    -4.3811 C.ar    
  27 C27            4.3615     5.7841    -3.2212 C.ar    
  28 C28            3.3467     6.0547    -2.1826 C.2     
  29 C29            3.0508     7.2661    -1.6174 C.2     
  30 C30            2.0236     6.9688    -0.6991 C.2     
  31 N31            1.8055     5.6872    -0.7864 N.2     
  32 O32            2.5229     5.1617    -1.6054 O.3     
  33 C33            1.3162     7.9431     0.2073 C.3     
  34 F34            0.9095     7.2848     1.3728 F       
  35 F35            2.1866     8.9865     0.5405 F       
  36 H36           -0.9567     1.8952     0.0169 H       
  37 H37            1.1819     3.1497     0.0071 H       
  38 H38            4.1596    -0.6262     0.9782 H       
  39 H39            3.6350    -1.6521    -0.3830 H       
  40 H40            5.6465    -0.3045    -0.9940 H       
  41 H41            4.2345     0.1634    -1.9779 H       
  42 H42            6.0920     2.9435     0.3453 H       
  43 H43            6.8645     1.4989    -0.3509 H       
  44 H44           -1.1514    -1.7356    -1.9184 H       
  45 H45           -2.0667    -0.2372     1.9595 H       
  46 H46           -4.1600    -2.8068     2.0099 H       
  47 H47           -4.6181    -1.0869     2.0358 H       
  48 H48           -5.1676    -2.1343     0.7057 H       
  49 H49            7.2467     3.4059    -1.8376 H       
  50 H50            6.1331     2.2650    -2.6291 H       
  51 H51            6.9641     3.7168    -3.8890 H       
  52 H52            7.0113     5.0861    -5.9299 H       
  53 H53            5.3801     6.8991    -6.2466 H       
  54 H54            3.6881     7.3568    -4.5240 H       
  55 H55            3.4998     8.2258    -1.8264 H       
  56 H56            0.4432     8.3477    -0.3049 H       
@<TRIPOS>BOND
   1    1    2 2
   2    1    6 1
   3    1   36 1
   4    2    3 1
   5    2   14 1
   6    3    4 am
   7    3   13 2
   8    4    5 1
   9    4    7 1
  10    5    6 2
  11    5   10 1
  12    6   37 1
  13    7    8 1
  14    7   38 1
  15    7   39 1
  16    8    9 1
  17    8   40 1
  18    8   41 1
  19    9   10 am
  20    9   11 1
  21   10   12 2
  22   11   20 1
  23   11   42 1
  24   11   43 1
  25   14   15 1
  26   14   18 1
  27   15   16 2
  28   15   44 1
  29   16   17 1
  30   17   18 2
  31   17   19 1
  32   18   45 1
  33   19   46 1
  34   19   47 1
  35   19   48 1
  36   20   21 1
  37   20   49 1
  38   20   50 1
  39   21   22 1
  40   22   23 ar
  41   22   27 ar
  42   23   24 ar
  43   23   51 1
  44   24   25 ar
  45   24   52 1
  46   25   26 ar
  47   25   53 1
  48   26   27 ar
  49   26   54 1
  50   27   28 1
  51   28   29 2
  52   28   32 1
  53   29   30 1
  54   29   55 1
  55   30   31 2
  56   30   33 1
  57   31   32 1
  58   33   34 1
  59   33   35 1
  60   33   56 1

#	End of record

