#	Name: ASD09740708
#	Creating user name:	WinNT
#	Creation time:	15. 06. 2019 21:23

#	Modifying user name:	WinNT
#	Modification time:	15. 06. 2019 21:23

#	Program:	/corina/corina34_cracker 3.40 0067  02.08.2006

@<TRIPOS>MOLECULE
ASD09740708
  58   61    0    0    0
SMALL
NO_CHARGES


@<TRIPOS>ATOM
   1 C1            -1.8092    -1.4934     0.2287 C.1     
   2 C2            -1.5491    -0.1032     0.4531 C.ar    
   3 C3            -0.2554     0.3267     0.7708 C.ar    
   4 C4            -0.0047     1.6699     0.9875 C.ar    
   5 C5            -1.0262     2.5927     0.8915 C.ar    
   6 C6            -2.3218     2.1766     0.5751 C.ar    
   7 C7            -2.5825     0.8269     0.3501 C.ar    
   8 N8            -2.0155    -2.5962     0.0507 N.1     
   9 F9             0.7495    -0.5713     0.8664 F       
  10 S10           -5.0970     2.8179     0.0867 S.3     
  11 C11           -5.4802     4.5322     0.2182 C.2     
  12 N12           -4.3978     5.1923     0.5203 N.2     
  13 C13           -3.2946     4.5011     0.6612 C.2     
  14 C14           -3.4135     3.1682     0.4737 C.2     
  15 C15           -8.1823     8.5578     0.1582 C.3     
  16 C16           -6.6840     8.9142     0.0573 C.3     
  17 C17           -6.0019     7.5982     0.4879 C.3     
  18 C18           -6.9962     6.5084     0.1498 C.ar    
  19 C19           -6.8176     5.1279     0.0172 C.ar    
  20 C20           -7.9033     4.3138    -0.3053 C.ar    
  21 C21           -9.1493     4.8761    -0.4921 C.ar    
  22 C22           -9.3206     6.2412    -0.3600 C.ar    
  23 C23           -8.2470     7.0582    -0.0395 C.ar    
  24 O24           -8.6903     8.9105     1.4464 O.3     
  25 Si25          -9.4642    10.3458     1.4842 Si      
  26 C26           -8.3261    11.6816     0.8588 C.3     
  27 C27          -10.9786    10.2634     0.4023 C.3     
  28 C28           -9.9718    10.7317     3.2347 C.3     
  29 C29           -8.7280    10.7993     4.1232 C.3     
  30 C30          -10.6977    12.0781     3.2701 C.3     
  31 C31          -10.9064     9.6347     3.7483 C.3     
  32 H32            0.9947     1.9976     1.2331 H       
  33 H33           -0.8235     3.6398     1.0619 H       
  34 H34           -3.5818     0.5018     0.1008 H       
  35 H35           -2.3520     4.9657     0.9105 H       
  36 H36           -8.7457     9.0670    -0.6238 H       
  37 H37           -6.4152     9.1731    -0.9668 H       
  38 H38           -6.4312     9.7238     0.7420 H       
  39 H39           -5.0764     7.4520    -0.0691 H       
  40 H40           -5.8019     7.6087     1.5593 H       
  41 H41           -7.7690     3.2472    -0.4088 H       
  42 H42           -9.9919     4.2487    -0.7424 H       
  43 H43          -10.2985     6.6752    -0.5079 H       
  44 H44           -8.0291    11.4558    -0.1654 H       
  45 H45           -8.8433    12.6407     0.8840 H       
  46 H46           -7.4400    11.7298     1.4918 H       
  47 H47          -11.5999     9.4225     0.7104 H       
  48 H48          -11.5456    11.1892     0.4999 H       
  49 H49          -10.6762    10.1303    -0.6364 H       
  50 H50           -8.0622    11.5809     3.7573 H       
  51 H51           -9.0250    11.0252     5.1474 H       
  52 H52           -8.2109     9.8402     4.0980 H       
  53 H53          -11.5838    12.0299     2.6371 H       
  54 H54          -10.9947    12.3039     4.2943 H       
  55 H55          -10.0318    12.8596     2.9042 H       
  56 H56          -10.3893     8.6755     3.7231 H       
  57 H57          -11.2034     9.8605     4.7725 H       
  58 H58          -11.7925     9.5865     3.1153 H       
@<TRIPOS>BOND
   1    1    2 1
   2    1    8 3
   3    2    3 ar
   4    2    7 ar
   5    3    4 ar
   6    3    9 1
   7    4    5 ar
   8    4   32 1
   9    5    6 ar
  10    5   33 1
  11    6    7 ar
  12    6   14 1
  13    7   34 1
  14   10   11 1
  15   10   14 1
  16   11   12 2
  17   11   19 1
  18   12   13 1
  19   13   14 2
  20   13   35 1
  21   15   16 1
  22   15   23 1
  23   15   24 1
  24   15   36 1
  25   16   17 1
  26   16   37 1
  27   16   38 1
  28   17   18 1
  29   17   39 1
  30   17   40 1
  31   18   19 ar
  32   18   23 ar
  33   19   20 ar
  34   20   21 ar
  35   20   41 1
  36   21   22 ar
  37   21   42 1
  38   22   23 ar
  39   22   43 1
  40   24   25 1
  41   25   26 1
  42   25   27 1
  43   25   28 1
  44   26   44 1
  45   26   45 1
  46   26   46 1
  47   27   47 1
  48   27   48 1
  49   27   49 1
  50   28   29 1
  51   28   31 1
  52   28   30 1
  53   29   50 1
  54   29   51 1
  55   29   52 1
  56   30   53 1
  57   30   54 1
  58   30   55 1
  59   31   56 1
  60   31   57 1
  61   31   58 1

#	End of record

