#	Name: ASD01841024
#	Creating user name:	WinNT
#	Creation time:	15. 06. 2019 19:38

#	Modifying user name:	WinNT
#	Modification time:	15. 06. 2019 19:38

#	Program:	/corina/corina34_cracker 3.40 0067  02.08.2006

@<TRIPOS>MOLECULE
ASD01841024
  40   41    0    0    0
SMALL
NO_CHARGES


@<TRIPOS>ATOM
   1 C1            -0.0167     1.3826     0.0096 C.ar    
   2 C2             0.0021    -0.0041     0.0020 C.ar    
   3 C3             1.2034    -0.6767    -0.0131 C.ar    
   4 C4             2.4050     0.0299    -0.0208 C.ar    
   5 C5             2.4046     1.4268    -0.0133 C.ar    
   6 C6             1.1593     2.0983     0.0023 C.ar    
   7 S7             4.0771    -0.5257    -0.0398 S.3     
   8 C8             4.6442     1.1384    -0.0364 C.2     
   9 N9             3.6465     1.9517    -0.0224 N.2     
  10 O10            1.1239     3.4572     0.0094 O.3     
  11 C11           -0.1657     4.0725     0.0252 C.3     
  12 C12            1.2193    -2.1836    -0.0208 C.3     
  13 N13            5.9766     1.5205    -0.0471 N.am    
  14 C14            6.3027     2.8282    -0.0432 C.2     
  15 C15            7.7513     3.2436    -0.0549 C.3     
  16 O16            5.4304     3.6706    -0.0304 O.2     
  17 C17            7.8440     4.7708    -0.0476 C.3     
  18 C18            7.1670     5.3168     1.2111 C.3     
  19 C19            9.3146     5.1926    -0.0595 C.3     
  20 C20            7.1430     5.3302    -1.2872 C.3     
  21 H21           -0.9618     1.9054     0.0170 H       
  22 H22           -0.9259    -0.5566     0.0083 H       
  23 H23           -0.7236     3.7697    -0.8609 H       
  24 H24           -0.7062     3.7607     0.9190 H       
  25 H25           -0.0511     5.1565     0.0295 H       
  26 H26            1.2131    -2.5417    -1.0503 H       
  27 H27            2.1181    -2.5401     0.4824 H       
  28 H28            0.3383    -2.5589     0.4997 H       
  29 H29            6.6743     0.8467    -0.0574 H       
  30 H30            8.2507     2.8451     0.8282 H       
  31 H31            8.2336     2.8547    -0.9517 H       
  32 H32            7.6663     4.9183     2.0942 H       
  33 H33            7.2330     6.4048     1.2163 H       
  34 H34            6.1192     5.0164     1.2196 H       
  35 H35            9.7970     4.8036    -0.9562 H       
  36 H36            9.3807     6.2806    -0.0543 H       
  37 H37            9.8140     4.7940     0.8236 H       
  38 H38            6.0952     5.0298    -1.2788 H       
  39 H39            7.2090     6.4182    -1.2820 H       
  40 H40            7.6253     4.9412    -2.1840 H       
@<TRIPOS>BOND
   1    1    2 ar
   2    1    6 ar
   3    1   21 1
   4    2    3 ar
   5    2   22 1
   6    3    4 ar
   7    3   12 1
   8    4    5 ar
   9    4    7 1
  10    5    6 ar
  11    5    9 1
  12    6   10 1
  13    7    8 1
  14    8    9 2
  15    8   13 1
  16   10   11 1
  17   11   23 1
  18   11   24 1
  19   11   25 1
  20   12   26 1
  21   12   27 1
  22   12   28 1
  23   13   14 am
  24   13   29 1
  25   14   15 1
  26   14   16 2
  27   15   17 1
  28   15   30 1
  29   15   31 1
  30   17   18 1
  31   17   19 1
  32   17   20 1
  33   18   32 1
  34   18   33 1
  35   18   34 1
  36   19   35 1
  37   19   36 1
  38   19   37 1
  39   20   38 1
  40   20   39 1
  41   20   40 1

#	End of record

