#	Name: ASD05730010
#	Creating user name:	WinNT
#	Creation time:	15. 06. 2019 21:02

#	Modifying user name:	WinNT
#	Modification time:	15. 06. 2019 21:02

#	Program:	/corina/corina34_cracker 3.40 0067  02.08.2006

@<TRIPOS>MOLECULE
ASD05730010
  48   51    0    0    0
SMALL
NO_CHARGES


@<TRIPOS>ATOM
   1 N1            -0.1857     1.0602    -1.1580 N.ar    
   2 C2            -0.0834    -0.1371    -0.5911 C.ar    
   3 N3             1.0487    -0.8252    -0.5804 N.ar    
   4 C4             2.1406    -0.3295    -1.1482 C.ar    
   5 C5             2.0695     0.9411    -1.7608 C.ar    
   6 C6             0.8511     1.6294    -1.7463 C.ar    
   7 N7             3.3265    -1.0173    -1.1529 N.am    
   8 C8             4.4239    -0.4995    -1.7328 C.2     
   9 C9             4.4083     0.7639    -2.3576 C.2     
  10 C10            3.2643     1.4965    -2.3891 C.2     
  11 N11           -1.1996    -0.6849     0.0103 N.pl3   
  12 C12           -2.3767     0.0667     0.1187 C.ar    
  13 C13           -3.6121    -0.5596     0.0184 C.ar    
  14 C14           -4.7724     0.1811     0.1257 C.ar    
  15 C15           -4.7039     1.5524     0.3340 C.ar    
  16 C16           -3.4684     2.1787     0.4344 C.ar    
  17 C17           -2.3083     1.4371     0.3323 C.ar    
  18 N18           -5.8799     2.3033     0.4424 N.3     
  19 O19            5.4607    -1.1401    -1.7173 O.2     
  20 C20           -8.0482     2.5772     1.5456 C.3     
  21 C21           -6.7414     1.7810     1.5122 C.3     
  22 C22           -5.5787     3.7252     0.6595 C.3     
  23 N23           -7.7470     3.9991     1.7627 N.3     
  24 C24           -6.8854     4.5213     0.6928 C.3     
  25 C25           -8.9814     4.7873     1.8764 C.3     
  26 C26            3.3996    -2.3349    -0.5167 C.3     
  27 H27            0.7606     2.6027    -2.2054 H       
  28 H28            5.3078     1.1503    -2.8136 H       
  29 H29            3.2402     2.4657    -2.8650 H       
  30 H30           -1.1684    -1.5900     0.3576 H       
  31 H31           -3.6653    -1.6260    -0.1440 H       
  32 H32           -5.7331    -0.3060     0.0473 H       
  33 H33           -3.4152     3.2452     0.5961 H       
  34 H34           -1.3475     1.9241     0.4104 H       
  35 H35           -8.5715     2.4570     0.5970 H       
  36 H36           -8.6767     2.2106     2.3571 H       
  37 H37           -6.9606     0.7303     1.3224 H       
  38 H38           -6.2313     1.8791     2.4704 H       
  39 H39           -5.0553     3.8453     1.6080 H       
  40 H40           -4.9501     4.0918    -0.1521 H       
  41 H41           -6.6663     5.5720     0.8826 H       
  42 H42           -7.3956     4.4232    -0.2654 H       
  43 H43           -9.5694     4.4220     2.7184 H       
  44 H44           -8.7297     5.8356     2.0366 H       
  45 H45           -9.5611     4.6890     0.9586 H       
  46 H46            3.1568    -3.1056    -1.2483 H       
  47 H47            4.4079    -2.4995    -0.1367 H       
  48 H48            2.6885    -2.3801     0.3082 H       
@<TRIPOS>BOND
   1    1    2 ar
   2    1    6 ar
   3    2    3 ar
   4    2   11 1
   5    3    4 ar
   6    4    5 ar
   7    4    7 1
   8    5    6 ar
   9    5   10 1
  10    6   27 1
  11    7    8 am
  12    7   26 1
  13    8    9 1
  14    8   19 2
  15    9   10 2
  16    9   28 1
  17   10   29 1
  18   11   12 1
  19   11   30 1
  20   12   13 ar
  21   12   17 ar
  22   13   14 ar
  23   13   31 1
  24   14   15 ar
  25   14   32 1
  26   15   16 ar
  27   15   18 1
  28   16   17 ar
  29   16   33 1
  30   17   34 1
  31   18   22 1
  32   18   21 1
  33   20   21 1
  34   20   23 1
  35   20   35 1
  36   20   36 1
  37   21   37 1
  38   21   38 1
  39   22   24 1
  40   22   39 1
  41   22   40 1
  42   23   25 1
  43   23   24 1
  44   24   41 1
  45   24   42 1
  46   25   43 1
  47   25   44 1
  48   25   45 1
  49   26   46 1
  50   26   47 1
  51   26   48 1

#	End of record

