#	Name: ASD01890411
#	Creating user name:	WinNT
#	Creation time:	15. 06. 2019 19:50

#	Modifying user name:	WinNT
#	Modification time:	15. 06. 2019 19:50

#	Program:	/corina/corina34_cracker 3.40 0067  02.08.2006

@<TRIPOS>MOLECULE
ASD01890411
  51   52    0    0    0
SMALL
NO_CHARGES


@<TRIPOS>ATOM
   1 C1             0.9624     0.1554    -0.9052 C.2     
   2 C2            -0.4092     0.0629    -0.2877 C.3     
   3 C3            -1.3622    -0.5636    -1.2728 C.2     
   4 O4             1.2103    -0.4515    -1.9200 O.2     
   5 O5             1.9070     0.9166    -0.3307 O.3     
   6 O6            -0.9341    -1.1952    -2.2096 O.2     
   7 O7            -2.6868    -0.4198    -1.1095 O.3     
   8 C8            -0.3428    -0.7978     0.9755 C.3     
   9 C9            -1.7543    -0.9986     1.5306 C.3     
  10 C10           -2.2942     0.3206     2.0197 C.2     
  11 O11           -1.5804     1.3007     2.0322 O.2     
  12 C12           -3.6878     0.4194     2.4822 C.ar    
  13 C13           -4.2257     1.6619     2.8327 C.ar    
  14 C14           -5.5323     1.7462     3.2651 C.ar    
  15 C15           -6.3108     0.6053     3.3532 C.ar    
  16 C16           -5.7858    -0.6280     3.0081 C.ar    
  17 C17           -4.4829    -0.7279     2.5680 C.ar    
  18 C18           -7.7376     0.7063     3.8277 C.3     
  19 C19           -8.6591     0.9348     2.6280 C.3     
  20 C20            0.2602    -2.1374     0.6396 C.ar    
  21 C21            1.4247    -2.5466     1.2622 C.ar    
  22 C22            1.9783    -3.7751     0.9545 C.ar    
  23 C23            1.3667    -4.5954     0.0232 C.ar    
  24 C24            0.2013    -4.1853    -0.5995 C.ar    
  25 C25           -0.3544    -2.9590    -0.2868 C.ar    
  26 Cl26           2.0616    -6.1383    -0.3642 Cl      
  27 C27            3.2299     0.8888    -0.9287 C.3     
  28 C28           -3.5450    -1.0501    -2.0966 C.3     
  29 H29           -0.7592     1.0621    -0.0286 H       
  30 H30            0.2740    -0.2989     1.7231 H       
  31 H31           -2.4019    -1.3873     0.7447 H       
  32 H32           -1.7219    -1.7072     2.3582 H       
  33 H33           -3.6192     2.5529     2.7651 H       
  34 H34           -5.9491     2.7049     3.5361 H       
  35 H35           -6.3996    -1.5137     3.0795 H       
  36 H36           -4.0761    -1.6903     2.2944 H       
  37 H37           -8.0193    -0.2184     4.3313 H       
  38 H38           -7.8313     1.5412     4.5221 H       
  39 H39           -8.3774     1.8596     2.1244 H       
  40 H40           -8.5654     0.0999     1.9336 H       
  41 H41           -9.6911     1.0079     2.9712 H       
  42 H42            1.9022    -1.9060     1.9889 H       
  43 H43            2.8882    -4.0945     1.4407 H       
  44 H44           -0.2766    -4.8252    -1.3266 H       
  45 H45           -1.2665    -2.6406    -0.7697 H       
  46 H46            3.1830     1.3077    -1.9340 H       
  47 H47            3.9159     1.4788    -0.3209 H       
  48 H48            3.5837    -0.1408    -0.9803 H       
  49 H49           -3.3254    -0.6414    -3.0829 H       
  50 H50           -3.3654    -2.1252    -2.1006 H       
  51 H51           -4.5883    -0.8570    -1.8473 H       
@<TRIPOS>BOND
   1    1    2 1
   2    1    4 2
   3    1    5 1
   4    2    3 1
   5    2    8 1
   6    2   29 1
   7    3    6 2
   8    3    7 1
   9    5   27 1
  10    7   28 1
  11    8    9 1
  12    8   20 1
  13    8   30 1
  14    9   10 1
  15    9   31 1
  16    9   32 1
  17   10   11 2
  18   10   12 1
  19   12   13 ar
  20   12   17 ar
  21   13   14 ar
  22   13   33 1
  23   14   15 ar
  24   14   34 1
  25   15   16 ar
  26   15   18 1
  27   16   17 ar
  28   16   35 1
  29   17   36 1
  30   18   19 1
  31   18   37 1
  32   18   38 1
  33   19   39 1
  34   19   40 1
  35   19   41 1
  36   20   21 ar
  37   20   25 ar
  38   21   22 ar
  39   21   42 1
  40   22   23 ar
  41   22   43 1
  42   23   24 ar
  43   23   26 1
  44   24   25 ar
  45   24   44 1
  46   25   45 1
  47   27   46 1
  48   27   47 1
  49   27   48 1
  50   28   49 1
  51   28   50 1
  52   28   51 1

#	End of record

