#	Name: ASD00071106
#	Creating user name:	WinNT
#	Creation time:	15. 06. 2019 18:30

#	Modifying user name:	WinNT
#	Modification time:	15. 06. 2019 18:30

#	Program:	/corina/corina34_cracker 3.40 0067  02.08.2006

@<TRIPOS>MOLECULE
ASD00071106
  54   57    0    0    0
SMALL
NO_CHARGES


@<TRIPOS>ATOM
   1 N1            -1.2299     2.3199     0.0348 N.4     
   2 N2             0.2287     0.5978    -0.5584 N.2     
   3 C3            -0.9082     0.9618    -0.0450 C.2     
   4 N4            -1.7942     0.0247     0.4194 N.pl3   
   5 C5            -1.8400    -1.2911    -0.2364 C.3     
   6 C6            -0.4200    -1.7094    -0.5353 C.ar    
   7 C7            -0.0917    -3.0423    -0.6535 C.ar    
   8 C8             1.2099    -3.4120    -0.9392 C.ar    
   9 C9             2.1908    -2.4409    -1.1080 C.ar    
  10 C10            1.8688    -1.0977    -0.9857 C.ar    
  11 C11            0.5576    -0.7247    -0.6935 C.ar    
  12 C12           -2.6784     0.3277     1.5476 C.3     
  13 C13           -2.0552    -0.1765     2.8237 C.ar    
  14 C14           -1.1819     0.6308     3.5362 C.ar    
  15 C15           -0.6093     0.1641     4.7110 C.ar    
  16 C16           -0.9090    -1.1040     5.1707 C.ar    
  17 C17           -1.7791    -1.9105     4.4624 C.ar    
  18 C18           -2.3587    -1.4463     3.2901 C.ar    
  19 O19           -3.2187    -2.2379     2.5968 O.3     
  20 C20           -3.4854    -3.5341     3.1360 C.3     
  21 O21           -0.8865     1.8779     3.0842 O.3     
  22 C22            0.0209     2.6542     3.8690 C.3     
  23 N23            3.5035    -2.8194    -1.4010 N.pl3   
  24 C24            4.3071    -1.9968    -2.1945 C.ar    
  25 C25            5.6864    -2.0015    -2.0283 C.ar    
  26 C26            6.4777    -1.1871    -2.8142 C.ar    
  27 C27            5.8986    -0.3672    -3.7655 C.ar    
  28 C28            4.5260    -0.3597    -3.9332 C.ar    
  29 C29            3.7292    -1.1764    -3.1553 C.ar    
  30 H30           -0.4521     2.8699    -0.2977 H       
  31 H31           -2.0419     2.5072    -0.5341 H       
  32 H32           -1.4280     2.5628     0.9939 H       
  33 H33           -2.3068    -2.0184     0.4279 H       
  34 H34           -2.4071    -1.2211    -1.1647 H       
  35 H35           -0.8514    -3.7988    -0.5232 H       
  36 H36            1.4652    -4.4573    -1.0310 H       
  37 H37            2.6307    -0.3435    -1.1162 H       
  38 H38           -2.8241     1.4058     1.6156 H       
  39 H39           -3.6412    -0.1602     1.3959 H       
  40 H40            0.0713     0.7925     5.2662 H       
  41 H41           -0.4621    -1.4655     6.0851 H       
  42 H42           -2.0117    -2.9013     4.8238 H       
  43 H43           -4.1854    -4.0605     2.4871 H       
  44 H44           -2.5555    -4.0988     3.2013 H       
  45 H45           -3.9189    -3.4316     4.1308 H       
  46 H46            0.9764     2.1345     3.9400 H       
  47 H47            0.1699     3.6256     3.3974 H       
  48 H48           -0.3913     2.7948     4.8682 H       
  49 H49            3.8568    -3.6532    -1.0536 H       
  50 H50            6.1392    -2.6410    -1.2851 H       
  51 H51            7.5500    -1.1903    -2.6856 H       
  52 H52            6.5198     0.2690    -4.3785 H       
  53 H53            4.0769     0.2821    -4.6768 H       
  54 H54            2.6577    -1.1739    -3.2903 H       
@<TRIPOS>BOND
   1    1    3 1
   2    1   30 1
   3    1   31 1
   4    1   32 1
   5    2    3 2
   6    2   11 1
   7    3    4 1
   8    4    5 1
   9    4   12 1
  10    5    6 1
  11    5   33 1
  12    5   34 1
  13    6    7 ar
  14    6   11 ar
  15    7    8 ar
  16    7   35 1
  17    8    9 ar
  18    8   36 1
  19    9   10 ar
  20    9   23 1
  21   10   11 ar
  22   10   37 1
  23   12   13 1
  24   12   38 1
  25   12   39 1
  26   13   14 ar
  27   13   18 ar
  28   14   15 ar
  29   14   21 1
  30   15   16 ar
  31   15   40 1
  32   16   17 ar
  33   16   41 1
  34   17   18 ar
  35   17   42 1
  36   18   19 1
  37   19   20 1
  38   20   43 1
  39   20   44 1
  40   20   45 1
  41   21   22 1
  42   22   46 1
  43   22   47 1
  44   22   48 1
  45   23   24 1
  46   23   49 1
  47   24   25 ar
  48   24   29 ar
  49   25   26 ar
  50   25   50 1
  51   26   27 ar
  52   26   51 1
  53   27   28 ar
  54   27   52 1
  55   28   29 ar
  56   28   53 1
  57   29   54 1

#	End of record

