#	Name: ASD02038921
#	Creating user name:	WinNT
#	Creation time:	15. 06. 2019 20:17

#	Modifying user name:	WinNT
#	Modification time:	15. 06. 2019 20:17

#	Program:	/corina/corina34_cracker 3.40 0067  02.08.2006

@<TRIPOS>MOLECULE
ASD02038921
  49   52    0    0    0
SMALL
NO_CHARGES


@<TRIPOS>ATOM
   1 C1            -0.0162     1.3443     0.0094 C.2     
   2 C2             0.0021    -0.0041     0.0020 C.2     
   3 C3             2.2292     4.5137     0.0050 C.3     
   4 N4             1.2232     3.4410     0.0089 N.am    
   5 C5             1.2414     2.0934     0.0014 C.2     
   6 C6             1.1895     5.4124    -0.6788 C.3     
   7 C7             0.1884     4.4859     0.0252 C.3     
   8 C8             1.1749     6.8549    -0.1690 C.3     
   9 O9             0.2586     7.6263    -0.9483 O.3     
  10 C10            0.1251     8.9398    -0.6232 C.ar    
  11 C11           -0.7475     9.7460    -1.3393 C.ar    
  12 C12            0.8576     9.4717     0.4282 C.ar    
  13 C13            0.7221    10.8052     0.7598 C.ar    
  14 C14           -0.1472    11.6140     0.0400 C.ar    
  15 C15           -0.8832    11.0797    -1.0091 C.ar    
  16 N16           -0.2870    12.9669     0.3730 N.am    
  17 C17           -1.3598    13.6642    -0.0437 C.2     
  18 C18           -2.4387    13.0029    -0.8582 C.3     
  19 C19           -1.8251    11.9600    -1.7888 C.3     
  20 O20            2.3035     1.4993    -0.0119 O.2     
  21 O21           -1.4585    14.8392     0.2407 O.2     
  22 C22           -1.2622    -0.7571     0.0100 C.ar    
  23 C23           -1.2469    -2.1554     0.0024 C.ar    
  24 C24           -2.4362    -2.8547     0.0105 C.ar    
  25 C25           -3.6438    -2.1739     0.0261 C.ar    
  26 C26           -3.6653    -0.7887     0.0333 C.ar    
  27 C27           -2.4847    -0.0775     0.0312 C.ar    
  28 Cl28          -5.1359    -3.0612     0.0362 Cl      
  29 Cl29          -2.4205    -4.5906     0.0004 Cl      
  30 H30           -0.9587     1.8715     0.0168 H       
  31 H31            0.9446    -0.5313    -0.0098 H       
  32 H32            2.5064     4.8525     1.0033 H       
  33 H33            3.0938     4.2957    -0.6219 H       
  34 H34            1.1798     5.3371    -1.7661 H       
  35 H35           -0.6822     4.2443    -0.5844 H       
  36 H36           -0.0780     4.8173     1.0289 H       
  37 H37            0.8641     6.8680     0.8757 H       
  38 H38            2.1743     7.2811    -0.2560 H       
  39 H39           -1.3204     9.3306    -2.1551 H       
  40 H40            1.5338     8.8424     0.9877 H       
  41 H41            1.2917    11.2188     1.5788 H       
  42 H42            0.3938    13.4043     0.9080 H       
  43 H43           -3.1487    12.5150    -0.1904 H       
  44 H44           -2.9590    13.7562    -1.4497 H       
  45 H45           -1.2752    12.4623    -2.5847 H       
  46 H46           -2.6172    11.3505    -2.2237 H       
  47 H47           -0.3066    -2.6865    -0.0102 H       
  48 H48           -4.6097    -0.2647     0.0448 H       
  49 H49           -2.5034     1.0023     0.0368 H       
@<TRIPOS>BOND
   1    1    2 2
   2    1    5 1
   3    1   30 1
   4    2   22 1
   5    2   31 1
   6    3    4 1
   7    3    6 1
   8    3   32 1
   9    3   33 1
  10    4    5 am
  11    4    7 1
  12    5   20 2
  13    6    7 1
  14    6    8 1
  15    6   34 1
  16    7   35 1
  17    7   36 1
  18    8    9 1
  19    8   37 1
  20    8   38 1
  21    9   10 1
  22   10   11 ar
  23   10   12 ar
  24   11   15 ar
  25   11   39 1
  26   12   13 ar
  27   12   40 1
  28   13   14 ar
  29   13   41 1
  30   14   15 ar
  31   14   16 1
  32   15   19 1
  33   16   17 am
  34   16   42 1
  35   17   18 1
  36   17   21 2
  37   18   19 1
  38   18   43 1
  39   18   44 1
  40   19   45 1
  41   19   46 1
  42   22   23 ar
  43   22   27 ar
  44   23   24 ar
  45   23   47 1
  46   24   25 ar
  47   24   29 1
  48   25   26 ar
  49   25   28 1
  50   26   27 ar
  51   26   48 1
  52   27   49 1

#	End of record

