#	Name: ASD01670070
#	Creating user name:	WinNT
#	Creation time:	15. 06. 2019 19:22

#	Modifying user name:	WinNT
#	Modification time:	15. 06. 2019 19:22

#	Program:	/corina/corina34_cracker 3.40 0067  02.08.2006

@<TRIPOS>MOLECULE
ASD01670070
  75   78    0    0    0
SMALL
NO_CHARGES


@<TRIPOS>ATOM
   1 C1             1.6112     1.4829    -1.7024 C.ar    
   2 C2             1.4687     0.1069    -1.7042 C.ar    
   3 C3             2.6982     2.0661    -1.0843 C.ar    
   4 C4             2.4136    -0.6935    -1.0868 C.ar    
   5 C5             4.4184    -5.5465     1.3787 C.ar    
   6 C6             7.9721     4.9611    -0.2125 C.2     
   7 C7             5.7774     6.0451    -0.4473 C.3     
   8 C8             3.9813    -6.8470     1.1857 C.ar    
   9 C9             8.6497     6.0318    -1.0135 C.3     
  10 C10            6.3813     6.7978    -1.5947 C.2     
  11 C11            3.6551     1.2646    -0.4601 C.ar    
  12 C12            4.4936    -5.2143    -1.0008 C.ar    
  13 C13            6.6987     4.9670     0.0385 C.2     
  14 C14            3.5050    -0.1233    -0.4653 C.ar    
  15 C15            4.6745    -4.7307     0.2991 C.ar    
  16 C16            3.7971    -7.3412    -0.0942 C.ar    
  17 C17            4.0520    -6.5283    -1.1961 C.ar    
  18 C18            7.6623     6.7918    -1.8472 C.2     
  19 C19            2.8746    -1.2026     3.2667 C.2     
  20 C20            3.4723    -2.1533     2.5921 C.2     
  21 C21            4.8227     1.8827     0.2036 C.2     
  22 C22            4.7660    -4.3445    -2.1593 C.2     
  23 C23            2.9961    -8.3580    -1.9133 C.3     
  24 C24            4.7059     3.7669     4.4325 C.3     
  25 C25            7.1482     8.2147    -3.6785 C.3     
  26 C26            4.5329    -0.9965     0.2070 C.3     
  27 C27            5.1491    -3.3173     0.5182 C.3     
  28 C28            2.9682    -2.5385     1.2252 C.3     
  29 C29            5.1177     3.2302     3.0601 C.3     
  30 C30            5.5902     4.3892     2.1801 C.3     
  31 C31            6.1205     3.8396     0.8543 C.3     
  32 N32            5.0241     3.2122     0.1123 N.am    
  33 N33            4.0493    -2.3832     0.2428 N.3     
  34 O34            5.8765    -4.3188    -2.6519 O.2     
  35 O35            5.6009     1.1918     0.8317 O.2     
  36 O36            3.7836    -3.5778    -2.6721 O.3     
  37 O37            3.3825    -8.5628    -0.5414 O.3     
  38 O38            3.7990    -7.2378    -2.3307 O.3     
  39 O39            8.1190     7.5036    -2.9080 O.3     
  40 H40            0.8722     2.1018    -2.1896 H       
  41 H41            0.6160    -0.3446    -2.1895 H       
  42 H42            2.8085     3.1405    -1.0838 H       
  43 H43            2.2961    -1.7671    -1.0912 H       
  44 H44            4.5547    -5.1690     2.3813 H       
  45 H45            8.5694     4.1462     0.1690 H       
  46 H46            5.5773     6.7388     0.3692 H       
  47 H47            4.8389     5.5944    -0.7701 H       
  48 H48            3.7835    -7.4790     2.0389 H       
  49 H49            9.1509     6.7222    -0.3351 H       
  50 H50            9.3914     5.5733    -1.6674 H       
  51 H51            5.7294     7.3685    -2.2395 H       
  52 H52            1.9728    -0.7512     2.8802 H       
  53 H53            3.2837    -0.8702     4.2093 H       
  54 H54            4.3264    -2.6609     3.0155 H       
  55 H55            3.2275    -9.2390    -2.5120 H       
  56 H56            1.9355    -8.1158    -1.9805 H       
  57 H57            4.4522     2.9333     5.0874 H       
  58 H58            5.5325     4.3304     4.8652 H       
  59 H59            3.8397     4.4192     4.3225 H       
  60 H60            7.6453     8.7400    -4.4940 H       
  61 H61            6.4231     7.5113    -4.0880 H       
  62 H62            6.6354     8.9353    -3.0413 H       
  63 H63            5.4682    -0.9521    -0.3509 H       
  64 H64            4.6997    -0.6435     1.2247 H       
  65 H65            5.4755    -3.1997     1.5515 H       
  66 H66            5.9821    -3.1056    -0.1522 H       
  67 H67            2.6368    -3.5768     1.2395 H       
  68 H68            2.1329    -1.8942     0.9511 H       
  69 H69            5.9280     2.5109     3.1795 H       
  70 H70            4.2643     2.7415     2.5901 H       
  71 H71            4.7549     5.0621     1.9863 H       
  72 H72            6.3842     4.9334     2.6914 H       
  73 H73            6.8958     3.0994     1.0520 H       
  74 H74            4.4432     3.7536    -0.4447 H       
  75 H75            4.0101    -3.0241    -3.4317 H       
@<TRIPOS>BOND
   1    1    2 ar
   2    1    3 ar
   3    1   40 1
   4    2    4 ar
   5    2   41 1
   6    3   11 ar
   7    3   42 1
   8    4   14 ar
   9    4   43 1
  10    5    8 ar
  11    5   15 ar
  12    5   44 1
  13    6    9 1
  14    6   13 2
  15    6   45 1
  16    7   10 1
  17    7   13 1
  18    7   46 1
  19    7   47 1
  20    8   16 ar
  21    8   48 1
  22    9   18 1
  23    9   49 1
  24    9   50 1
  25   10   18 2
  26   10   51 1
  27   11   14 ar
  28   11   21 1
  29   12   15 ar
  30   12   17 ar
  31   12   22 1
  32   13   31 1
  33   14   26 1
  34   15   27 1
  35   16   17 ar
  36   16   37 1
  37   17   38 1
  38   18   39 1
  39   19   20 2
  40   19   52 1
  41   19   53 1
  42   20   28 1
  43   20   54 1
  44   21   32 am
  45   21   35 2
  46   22   34 2
  47   22   36 1
  48   23   37 1
  49   23   38 1
  50   23   55 1
  51   23   56 1
  52   24   29 1
  53   24   57 1
  54   24   58 1
  55   24   59 1
  56   25   39 1
  57   25   60 1
  58   25   61 1
  59   25   62 1
  60   26   33 1
  61   26   63 1
  62   26   64 1
  63   27   33 1
  64   27   65 1
  65   27   66 1
  66   28   33 1
  67   28   67 1
  68   28   68 1
  69   29   30 1
  70   29   69 1
  71   29   70 1
  72   30   31 1
  73   30   71 1
  74   30   72 1
  75   31   32 1
  76   31   73 1
  77   32   74 1
  78   36   75 1

#	End of record

