#	Name: ASD01120298
#	Creating user name:	WinNT
#	Creation time:	15. 06. 2019 18:59

#	Modifying user name:	WinNT
#	Modification time:	15. 06. 2019 18:59

#	Program:	/corina/corina34_cracker 3.40 0067  02.08.2006

@<TRIPOS>MOLECULE
ASD01120298
  37   39    0    0    0
SMALL
NO_CHARGES


@<TRIPOS>ATOM
   1 C1             4.2355     1.2637     1.5935 C.3     
   2 O2             4.1639    -0.1439     1.8294 O.3     
   3 C3             2.9295    -0.7118     1.8036 C.ar    
   4 C4             1.8104     0.0707     1.5563 C.ar    
   5 C5             0.5541    -0.5051     1.5298 C.ar    
   6 C6             0.4082    -1.8609     1.7487 C.ar    
   7 C7             1.5253    -2.6497     1.9969 C.ar    
   8 C8             2.7882    -2.0738     2.0187 C.ar    
   9 N9             1.3780    -4.0209     2.2193 N.pl3   
  10 C10            2.1066    -4.6447     3.2284 C.ar    
  11 C11            2.8574    -3.8915     4.1125 C.ar    
  12 C12            3.5844    -4.5096     5.1190 C.ar    
  13 C13            3.5725    -5.8805     5.2566 C.ar    
  14 C14            2.8259    -6.6642     4.3813 C.ar    
  15 C15            2.0795    -6.0465     3.3595 C.ar    
  16 C16            1.4325    -7.0747     2.6384 C.2     
  17 C17            1.7787    -8.2615     3.2070 C.2     
  18 N18            2.6252    -8.0206     4.2747 N.pl3   
  19 C19            1.3236    -9.5834     2.7627 C.2     
  20 O20            0.5731    -9.6799     1.8109 O.2     
  21 O21            1.7376   -10.6919     3.4101 O.3     
  22 N22            4.3557    -6.5213     6.3372 N.pl3   
  23 O23            5.0097    -5.8368     7.1034 O.2     
  24 O24            4.3460    -7.7331     6.4599 O.2     
  25 H25            3.6555     1.7892     2.3522 H       
  26 H26            5.2751     1.5877     1.6418 H       
  27 H27            3.8305     1.4878     0.6067 H       
  28 H28            1.9212     1.1312     1.3848 H       
  29 H29           -0.3151     0.1064     1.3378 H       
  30 H30           -0.5745    -2.3084     1.7274 H       
  31 H31            3.6581    -2.6842     2.2112 H       
  32 H32            0.7681    -4.5385     1.6706 H       
  33 H33            2.8780    -2.8158     4.0184 H       
  34 H34            4.1668    -3.9095     5.8024 H       
  35 H35            0.7795    -6.9425     1.7883 H       
  36 H36            3.0170    -8.6968     4.8492 H       
  37 H37            1.4110   -11.5404     3.0807 H       
@<TRIPOS>BOND
   1    1    2 1
   2    1   25 1
   3    1   26 1
   4    1   27 1
   5    2    3 1
   6    3    4 ar
   7    3    8 ar
   8    4    5 ar
   9    4   28 1
  10    5    6 ar
  11    5   29 1
  12    6    7 ar
  13    6   30 1
  14    7    8 ar
  15    7    9 1
  16    8   31 1
  17    9   10 1
  18    9   32 1
  19   10   11 ar
  20   10   15 ar
  21   11   12 ar
  22   11   33 1
  23   12   13 ar
  24   12   34 1
  25   13   14 ar
  26   13   22 1
  27   14   15 ar
  28   14   18 1
  29   15   16 1
  30   16   17 2
  31   16   35 1
  32   17   18 1
  33   17   19 1
  34   18   36 1
  35   19   20 2
  36   19   21 1
  37   21   37 1
  38   22   23 2
  39   22   24 2

#	End of record

