#	Name: ASD07931497
#	Creating user name:	WinNT
#	Creation time:	15. 06. 2019 21:13

#	Modifying user name:	WinNT
#	Modification time:	15. 06. 2019 21:13

#	Program:	/corina/corina34_cracker 3.40 0067  02.08.2006

@<TRIPOS>MOLECULE
ASD07931497
  51   56    0    0    0
SMALL
NO_CHARGES


@<TRIPOS>ATOM
   1 N1            -0.0357     1.3023     0.0059 N.pl3   
   2 C2            -0.0526    -0.0335    -0.1253 C.2     
   3 C3             1.1052    -0.7711    -0.1515 C.2     
   4 C4             2.4086    -0.0787    -0.0322 C.2     
   5 C5             2.3817     1.3896     0.1102 C.ar    
   6 C6             3.5547     2.1293     0.2284 C.ar    
   7 C7             3.4885     3.5007     0.3593 C.ar    
   8 C8             2.2597     4.1416     0.3738 C.ar    
   9 C9             1.0884     3.4195     0.2573 C.ar    
  10 C10            1.1345     2.0338     0.1237 C.ar    
  11 N11            2.7843    -2.2635    -0.2308 N.am    
  12 N12            3.3380    -0.9892    -0.0844 N.2     
  13 C13            1.4367    -2.1869    -0.2767 C.2     
  14 O14            0.6536    -3.1149    -0.3987 O.2     
  15 C15           -1.3129     2.0198     0.0191 C.3     
  16 C16           -1.7065     2.3708    -1.3926 C.ar    
  17 C17           -2.3521     1.4364    -2.1815 C.ar    
  18 C18           -2.7141     1.7552    -3.4757 C.ar    
  19 C19           -2.4296     3.0154    -3.9842 C.ar    
  20 C20           -1.7817     3.9515    -3.1896 C.ar    
  21 C21           -1.4265     3.6284    -1.8945 C.ar    
  22 N22           -2.7953     3.3417    -5.2975 N.pl3   
  23 N23           -3.4501     2.4987    -6.2047 N.2     
  24 C24           -3.6199     3.1552    -7.3241 C.2     
  25 C25           -3.0796     4.4362    -7.1669 C.2     
  26 C26           -2.5838     4.5280    -5.9111 C.2     
  27 C27            3.5216    -3.4513    -0.3173 C.ar    
  28 C28            4.5146    -3.5869    -1.2821 C.ar    
  29 C29            5.2400    -4.7612    -1.3638 C.ar    
  30 C30            4.9787    -5.7990    -0.4877 C.ar    
  31 C31            3.9920    -5.6665     0.4716 C.ar    
  32 C32            3.2672    -4.4937     0.5632 C.ar    
  33 F33            4.7694    -2.5731    -2.1380 F       
  34 F34           -0.1025     4.0573     0.2729 F       
  35 H35           -1.0017    -0.5415    -0.2121 H       
  36 H36            4.5130     1.6314     0.2181 H       
  37 H37            4.3972     4.0771     0.4513 H       
  38 H38            2.2178     5.2158     0.4774 H       
  39 H39           -2.0807     1.3865     0.4636 H       
  40 H40           -1.2107     2.9329     0.6055 H       
  41 H41           -2.5732     0.4563    -1.7853 H       
  42 H42           -3.2177     1.0248    -4.0916 H       
  43 H43           -1.5590     4.9326    -3.5824 H       
  44 H44           -0.9258     4.3575    -1.2746 H       
  45 H45           -4.0948     2.7736    -8.2159 H       
  46 H46           -3.0648     5.2156    -7.9143 H       
  47 H47           -2.1033     5.3927    -5.4776 H       
  48 H48            6.0110    -4.8682    -2.1125 H       
  49 H49            5.5465    -6.7153    -0.5534 H       
  50 H50            3.7906    -6.4793     1.1536 H       
  51 H51            2.5001    -4.3900     1.3163 H       
@<TRIPOS>BOND
   1    1    2 1
   2    1   10 1
   3    1   15 1
   4    2    3 2
   5    2   35 1
   6    3    4 1
   7    3   13 1
   8    4    5 1
   9    4   12 2
  10    5    6 ar
  11    5   10 ar
  12    6    7 ar
  13    6   36 1
  14    7    8 ar
  15    7   37 1
  16    8    9 ar
  17    8   38 1
  18    9   10 ar
  19    9   34 1
  20   11   12 1
  21   11   13 am
  22   11   27 1
  23   13   14 2
  24   15   16 1
  25   15   39 1
  26   15   40 1
  27   16   17 ar
  28   16   21 ar
  29   17   18 ar
  30   17   41 1
  31   18   19 ar
  32   18   42 1
  33   19   20 ar
  34   19   22 1
  35   20   21 ar
  36   20   43 1
  37   21   44 1
  38   22   23 1
  39   22   26 1
  40   23   24 2
  41   24   25 1
  42   24   45 1
  43   25   26 2
  44   25   46 1
  45   26   47 1
  46   27   28 ar
  47   27   32 ar
  48   28   29 ar
  49   28   33 1
  50   29   30 ar
  51   29   48 1
  52   30   31 ar
  53   30   49 1
  54   31   32 ar
  55   31   50 1
  56   32   51 1

#	End of record

