#	Name: ASD03731601
#	Creating user name:	WinNT
#	Creation time:	15. 06. 2019 20:46

#	Modifying user name:	WinNT
#	Modification time:	15. 06. 2019 20:46

#	Program:	/corina/corina34_cracker 3.40 0067  02.08.2006

@<TRIPOS>MOLECULE
ASD03731601
  37   38    0    0    0
SMALL
NO_CHARGES


@<TRIPOS>ATOM
   1 C1             0.3747     1.0897     1.9860 C.2     
   2 C2             0.2908    -0.2854     1.4551 C.ar    
   3 C3             1.3728    -0.8347     0.7696 C.ar    
   4 C4             1.2883    -2.1323     0.2709 C.ar    
   5 C5             0.1134    -2.8775     0.4626 C.ar    
   6 C6            -0.9584    -2.3198     1.1473 C.ar    
   7 C7            -0.8725    -1.0388     1.6452 C.ar    
   8 O8             1.3875     1.7428     1.8251 O.2     
   9 N9            -0.6736     1.6230     2.6442 N.am    
  10 S10           -0.5796     3.1654     3.2396 S.o2    
  11 O11           -1.8321     3.3714     3.8784 O.2     
  12 O12            0.6324     3.1814     3.9813 O.2     
  13 C13           -0.4374     4.2121     1.7649 C.3     
  14 C14            2.3950    -2.7043    -0.4351 C.1     
  15 N15            3.2730    -3.1582    -0.9952 N.1     
  16 O16            0.0255    -4.1404    -0.0209 O.3     
  17 C17           -1.1657    -4.7850     0.0912 C.ar    
  18 C18           -2.1191    -4.6619    -0.9096 C.ar    
  19 C19           -3.3288    -5.3182    -0.7940 C.ar    
  20 C20           -3.5905    -6.0982     0.3189 C.ar    
  21 C21           -2.6414    -6.2218     1.3179 C.ar    
  22 C22           -1.4278    -5.5716     1.2035 C.ar    
  23 C23           -4.3648    -5.1845    -1.8802 C.3     
  24 F24           -3.8747    -4.3521    -2.8922 F       
  25 F25           -4.6489    -6.4471    -2.4117 F       
  26 F26           -5.5326    -4.6303    -1.3452 F       
  27 Cl27          -5.1118    -6.9221     0.4617 Cl      
  28 H28            2.2732    -0.2562     0.6253 H       
  29 H29           -1.8610    -2.8945     1.2937 H       
  30 H30           -1.7080    -0.6126     2.1807 H       
  31 H31           -1.4831     1.1034     2.7690 H       
  32 H32           -1.3152     4.0722     1.1341 H       
  33 H33           -0.3694     5.2573     2.0664 H       
  34 H34            0.4580     3.9356     1.2081 H       
  35 H35           -1.9155    -4.0531    -1.7780 H       
  36 H36           -2.8476    -6.8307     2.1858 H       
  37 H37           -0.6855    -5.6719     1.9815 H       
@<TRIPOS>BOND
   1    1    2 1
   2    1    8 2
   3    1    9 am
   4    2    3 ar
   5    2    7 ar
   6    3    4 ar
   7    3   28 1
   8    4    5 ar
   9    4   14 1
  10    5    6 ar
  11    5   16 1
  12    6    7 ar
  13    6   29 1
  14    7   30 1
  15    9   10 am
  16    9   31 1
  17   10   11 2
  18   10   12 2
  19   10   13 1
  20   13   32 1
  21   13   33 1
  22   13   34 1
  23   14   15 3
  24   16   17 1
  25   17   18 ar
  26   17   22 ar
  27   18   19 ar
  28   18   35 1
  29   19   20 ar
  30   19   23 1
  31   20   21 ar
  32   20   27 1
  33   21   22 ar
  34   21   36 1
  35   22   37 1
  36   23   24 1
  37   23   25 1
  38   23   26 1

#	End of record

