#	Name: ASD03731522
#	Creating user name:	WinNT
#	Creation time:	15. 06. 2019 20:45

#	Modifying user name:	WinNT
#	Modification time:	15. 06. 2019 20:45

#	Program:	/corina/corina34_cracker 3.40 0067  02.08.2006

@<TRIPOS>MOLECULE
ASD03731522
  52   57    0    0    0
SMALL
NO_CHARGES


@<TRIPOS>ATOM
   1 C1            -0.0165     1.3623     0.0095 C.2     
   2 C2             0.0021    -0.0041     0.0020 C.2     
   3 C3             1.2719    -0.5305    -0.0129 C.2     
   4 C4             2.2604     0.3715    -0.0175 C.2     
   5 S5             1.6372     1.9597    -0.0030 S.3     
   6 C6            -1.2218     2.1963     0.0200 C.2     
   7 O7            -2.3219     1.6758     0.0226 O.2     
   8 N8            -1.1118     3.5395     0.0268 N.am    
   9 C9            -2.3166     4.3731     0.0372 C.3     
  10 C10           -1.9152     5.8495     0.0433 C.3     
  11 C11           -3.1733     6.7200     0.0542 C.3     
  12 O12            2.6901    10.2826    -2.0950 O.3     
  13 C13            3.4345    11.4916    -2.3344 C.3     
  14 O14            2.4462    12.4070    -2.8427 O.3     
  15 C15            1.2574    11.9926    -2.3137 C.ar    
  16 C16            1.4078    10.6859    -1.8551 C.ar    
  17 C17            0.0395    12.6356    -2.1834 C.ar    
  18 C18           -1.0421    11.9850    -1.5972 C.ar    
  19 C19           -0.8820    10.6769    -1.1504 C.ar    
  20 C20            0.3327    10.0352    -1.2733 C.ar    
  21 O21           -2.3069    12.4369    -1.3598 O.3     
  22 C22           -2.2153    10.2452    -0.6009 C.3     
  23 C23           -3.1793    11.3122    -1.1374 C.3     
  24 N24           -2.7890     8.1337     0.0600 N.am    
  25 C25           -2.5975     8.8660    -1.0554 C.2     
  26 C26           -2.2232    10.1866     0.8978 C.ar    
  27 C27           -1.9655    11.1089     1.8874 C.ar    
  28 C28           -2.0600    10.7421     3.2181 C.ar    
  29 C29           -2.4131     9.4472     3.5517 C.ar    
  30 C30           -2.6712     8.5196     2.5642 C.ar    
  31 C31           -2.5790     8.8800     1.2221 C.ar    
  32 O32           -2.7120     8.4856    -2.2014 O.2     
  33 H33           -0.8919    -0.6100     0.0079 H       
  34 H34            1.4581    -1.5943    -0.0201 H       
  35 H35            3.3122     0.1268    -0.0289 H       
  36 H36           -0.2350     3.9544     0.0247 H       
  37 H37           -2.9121     4.1621    -0.8510 H       
  38 H38           -2.9033     4.1524     0.9289 H       
  39 H39           -1.3196     6.0605     0.9315 H       
  40 H40           -1.3284     6.0701    -0.8484 H       
  41 H41           -3.7688     6.5090    -0.8340 H       
  42 H42           -3.7601     6.4994     0.9459 H       
  43 H43            3.8630    11.8677    -1.4054 H       
  44 H44            4.2151    11.3203    -3.0756 H       
  45 H45           -0.0727    13.6492    -2.5389 H       
  46 H46            0.4456     9.0226    -0.9153 H       
  47 H47           -3.9409    11.5536    -0.3959 H       
  48 H48           -3.6365    10.9862    -2.0716 H       
  49 H49           -1.6898    12.1194     1.6245 H       
  50 H50           -1.8588    11.4654     3.9944 H       
  51 H51           -2.4867     9.1609     4.5905 H       
  52 H52           -2.9459     7.5101     2.8326 H       
@<TRIPOS>BOND
   1    1    2 2
   2    1    5 1
   3    1    6 1
   4    2    3 1
   5    2   33 1
   6    3    4 2
   7    3   34 1
   8    4    5 1
   9    4   35 1
  10    6    7 2
  11    6    8 am
  12    8    9 1
  13    8   36 1
  14    9   10 1
  15    9   37 1
  16    9   38 1
  17   10   11 1
  18   10   39 1
  19   10   40 1
  20   11   24 1
  21   11   41 1
  22   11   42 1
  23   12   13 1
  24   12   16 1
  25   13   14 1
  26   13   43 1
  27   13   44 1
  28   14   15 1
  29   15   16 ar
  30   15   17 ar
  31   16   20 ar
  32   17   18 ar
  33   17   45 1
  34   18   19 ar
  35   18   21 1
  36   19   20 ar
  37   19   22 1
  38   20   46 1
  39   21   23 1
  40   22   23 1
  41   22   25 1
  42   22   26 1
  43   23   47 1
  44   23   48 1
  45   24   25 am
  46   24   31 1
  47   25   32 2
  48   26   27 ar
  49   26   31 ar
  50   27   28 ar
  51   27   49 1
  52   28   29 ar
  53   28   50 1
  54   29   30 ar
  55   29   51 1
  56   30   31 ar
  57   30   52 1

#	End of record

