#	Name: ASD03090219
#	Creating user name:	WinNT
#	Creation time:	15. 06. 2019 20:28

#	Modifying user name:	WinNT
#	Modification time:	15. 06. 2019 20:28

#	Program:	/corina/corina34_cracker 3.40 0067  02.08.2006

@<TRIPOS>MOLECULE
ASD03090219
  43   45    0    0    0
SMALL
NO_CHARGES


@<TRIPOS>ATOM
   1 C1             0.1948     1.0487     0.8764 C.ar    
   2 N2            -0.9229     1.4739     1.4436 N.ar    
   3 C3            -2.0677     0.8432     1.2801 C.ar    
   4 C4            -2.1395    -0.3068     0.4951 C.ar    
   5 C5            -0.9747    -0.7837    -0.1195 C.ar    
   6 C6             0.2021    -0.0872     0.0749 C.ar    
   7 C7            -3.4264    -1.0130     0.3145 C.2     
   8 N8            -6.9325    -1.2537     0.4109 N.pl3   
   9 C9            -7.4333    -0.0746     0.9689 C.ar    
  10 C10           -6.7031     0.6021     1.9376 C.ar    
  11 C11           -7.2009     1.7676     2.4867 C.ar    
  12 C12           -8.4246     2.2609     2.0733 C.ar    
  13 C13           -9.1546     1.5894     1.1093 C.ar    
  14 C14           -8.6603     0.4268     0.5520 C.ar    
  15 N15           -4.6242    -0.5149     0.5498 N.2     
  16 C16           -5.5542    -1.4323     0.2771 C.2     
  17 N17           -4.9646    -2.5301    -0.1363 N.2     
  18 N18           -3.5826    -2.2815    -0.1266 N.pl3   
  19 C19           -2.5202    -3.2146    -0.5100 C.3     
  20 C20           -2.2798    -3.1220    -2.0181 C.3     
  21 O21           -1.2435    -4.0322    -2.3920 O.3     
  22 O22            1.3481     1.7339     1.0753 O.3     
  23 C23            1.2774     2.8963     1.9034 C.3     
  24 C24          -10.4881     2.1306     0.6622 C.3     
  25 F25          -10.7701     3.3103     1.3594 F       
  26 F26          -10.4462     2.3986    -0.7102 F       
  27 F27          -11.4860     1.1853     0.9225 F       
  28 H28           -2.9593     1.2203     1.7590 H       
  29 H29           -0.9969    -1.6719    -0.7335 H       
  30 H30            1.1192    -0.4258    -0.3840 H       
  31 H31           -7.5424    -1.9481     0.1165 H       
  32 H32           -5.7473     0.2172     2.2612 H       
  33 H33           -6.6337     2.2940     3.2401 H       
  34 H34           -8.8115     3.1724     2.5043 H       
  35 H35           -9.2306    -0.0969    -0.2009 H       
  36 H36           -1.6031    -2.9587     0.0206 H       
  37 H37           -2.8183    -4.2306    -0.2513 H       
  38 H38           -3.1970    -3.3778    -2.5486 H       
  39 H39           -1.9818    -2.1060    -2.2768 H       
  40 H40           -1.0376    -4.0271    -3.3368 H       
  41 H41            2.2662     3.3487     1.9797 H       
  42 H42            0.5829     3.6130     1.4652 H       
  43 H43            0.9294     2.6140     2.8971 H       
@<TRIPOS>BOND
   1    1    2 ar
   2    1   22 1
   3    1    6 ar
   4    2    3 ar
   5    3    4 ar
   6    3   28 1
   7    4    5 ar
   8    4    7 1
   9    5    6 ar
  10    5   29 1
  11    6   30 1
  12    7   15 2
  13    7   18 1
  14    8    9 1
  15    8   16 1
  16    8   31 1
  17    9   10 ar
  18    9   14 ar
  19   10   11 ar
  20   10   32 1
  21   11   12 ar
  22   11   33 1
  23   12   13 ar
  24   12   34 1
  25   13   14 ar
  26   13   24 1
  27   14   35 1
  28   15   16 1
  29   16   17 2
  30   17   18 1
  31   18   19 1
  32   19   20 1
  33   19   36 1
  34   19   37 1
  35   20   21 1
  36   20   38 1
  37   20   39 1
  38   21   40 1
  39   22   23 1
  40   23   41 1
  41   23   42 1
  42   23   43 1
  43   24   25 1
  44   24   26 1
  45   24   27 1

#	End of record

