#	Name: ASD01870641
#	Creating user name:	WinNT
#	Creation time:	15. 06. 2019 19:39

#	Modifying user name:	WinNT
#	Modification time:	15. 06. 2019 19:39

#	Program:	/corina/corina34_cracker 3.40 0067  02.08.2006

@<TRIPOS>MOLECULE
ASD01870641
  40   43    0    0    0
SMALL
NO_CHARGES


@<TRIPOS>ATOM
   1 C1             0.0354     1.3491    -0.2730 C.ar    
   2 C2             0.0511    -0.0353    -0.1506 C.ar    
   3 C3             1.2386    -0.7035     0.0948 C.ar    
   4 C4             2.4259    -0.0012     0.2220 C.ar    
   5 C5             1.2155     2.0618    -0.1483 C.ar    
   6 C6             1.5676     3.4959    -0.2177 C.2     
   7 C7             2.4246     1.3797     0.1022 C.ar    
   8 C8             3.4684     2.4219     0.1764 C.2     
   9 N9             2.8923     3.6215    -0.0198 N.am    
  10 C10            3.5824     4.8435    -0.0182 C.ar    
  11 C11            3.7371     5.5517     1.1657 C.ar    
  12 C12            4.4163     6.7535     1.1679 C.ar    
  13 C13            4.9449     7.2551    -0.0148 C.ar    
  14 C14            4.7905     6.5472    -1.1995 C.ar    
  15 C15            4.1157     5.3416    -1.2004 C.ar    
  16 O16            0.7913     4.4077    -0.4202 O.2     
  17 O17            4.6501     2.2282     0.3800 O.2     
  18 N18            5.6326     8.4741    -0.0124 N.am    
  19 Cl19           3.9285     4.4526    -2.6797 Cl      
  20 C20            5.5282     9.3088    -1.0654 C.2     
  21 C21            6.1650    10.6288    -1.0206 C.2     
  22 O22            4.9053     8.9669    -2.0536 O.2     
  23 O23            6.8856    11.1270     0.0055 O.3     
  24 C24            6.1375    11.5671    -2.0124 C.2     
  25 C25            6.8710    12.6691    -1.5457 C.2     
  26 C26            7.3114    12.3579    -0.3067 C.2     
  27 C27            5.4531    11.4431    -3.3493 C.3     
  28 F28           -1.0994    -0.7331    -0.2714 F       
  29 H29           -0.8924     1.8660    -0.4688 H       
  30 H30            1.2392    -1.7795     0.1881 H       
  31 H31            3.3491    -0.5277     0.4141 H       
  32 H32            3.3257     5.1624     2.0853 H       
  33 H33            4.5364     7.3041     2.0892 H       
  34 H34            5.2014     6.9370    -2.1191 H       
  35 H35            6.1844     8.7182     0.7471 H       
  36 H36            7.0518    13.5913    -2.0780 H       
  37 H37            7.9099    12.9958     0.3267 H       
  38 H38            4.4308    11.8129    -3.2698 H       
  39 H39            5.9952    12.0300    -4.0908 H       
  40 H40            5.4383    10.3967    -3.6542 H       
@<TRIPOS>BOND
   1    1    2 ar
   2    1    5 ar
   3    1   29 1
   4    2    3 ar
   5    2   28 1
   6    3    4 ar
   7    3   30 1
   8    4    7 ar
   9    4   31 1
  10    5    7 ar
  11    5    6 1
  12    6    9 am
  13    6   16 2
  14    7    8 1
  15    8    9 am
  16    8   17 2
  17    9   10 1
  18   10   11 ar
  19   10   15 ar
  20   11   12 ar
  21   11   32 1
  22   12   13 ar
  23   12   33 1
  24   13   14 ar
  25   13   18 1
  26   14   15 ar
  27   14   34 1
  28   15   19 1
  29   18   20 am
  30   18   35 1
  31   20   21 1
  32   20   22 2
  33   21   24 2
  34   21   23 1
  35   23   26 1
  36   24   25 1
  37   24   27 1
  38   25   26 2
  39   25   36 1
  40   26   37 1
  41   27   38 1
  42   27   39 1
  43   27   40 1

#	End of record

