#	Name: ASD02198196
#	Creating user name:	WinNT
#	Creation time:	15. 06. 2019 20:19

#	Modifying user name:	WinNT
#	Modification time:	15. 06. 2019 20:19

#	Program:	/corina/corina34_cracker 3.40 0067  02.08.2006

@<TRIPOS>MOLECULE
ASD02198196
  42   45    0    0    0
SMALL
NO_CHARGES


@<TRIPOS>ATOM
   1 C1            -0.0156     1.3780    -0.0255 C.2     
   2 C2             0.0072    -0.0012    -0.0104 C.2     
   3 C3            -1.1789    -0.8006     0.0596 C.1     
   4 S4             1.5646     2.0118    -0.1146 S.3     
   5 C5             2.2781     0.4070    -0.1326 C.2     
   6 C6             1.2873    -0.5461    -0.0701 C.2     
   7 C7             3.6580     0.1360    -0.2007 C.2     
   8 C8             4.6264     1.2483    -0.2633 C.2     
   9 O9             4.0534    -1.0180    -0.2079 O.2     
  10 N10            1.5379    -1.9090    -0.0660 N.pl3   
  11 N11           -1.1600     2.1397     0.0194 N.pl3   
  12 N12           -2.1198    -1.4347     0.1151 N.1     
  13 C13           -1.0702     3.5297     0.1320 C.ar    
  14 O14            4.3445     2.5646    -0.2632 O.3     
  15 C15           -1.9773     4.3423    -0.5365 C.ar    
  16 N16            5.3470     3.2371    -0.3228 N.2     
  17 C17            6.4270     2.4974    -0.3706 C.2     
  18 C18            5.9880     1.1467    -0.3268 C.2     
  19 C19            7.8303     2.9752    -0.4488 C.ar    
  20 C20            8.1032     4.3410    -0.4775 C.ar    
  21 C21            8.8794     2.0593    -0.4878 C.ar    
  22 C22           10.1824     2.5089    -0.5599 C.ar    
  23 C23           10.4474     3.8661    -0.5935 C.ar    
  24 C24            9.4099     4.7798    -0.5497 C.ar    
  25 C25           -1.8856     5.7156    -0.4230 C.ar    
  26 C26           -0.8924     6.2820     0.3548 C.ar    
  27 C27            0.0122     5.4760     1.0216 C.ar    
  28 C28           -0.0772     4.1018     0.9171 C.ar    
  29 H29            2.4508    -2.2343    -0.1087 H       
  30 H30            0.8006    -2.5376    -0.0206 H       
  31 H31           -2.0294     1.7120    -0.0271 H       
  32 H32           -2.7530     3.9007    -1.1444 H       
  33 H33            6.5891     0.2497    -0.3463 H       
  34 H34            7.2938     5.0552    -0.4438 H       
  35 H35            8.6736     0.9994    -0.4612 H       
  36 H36           10.9964     1.7998    -0.5898 H       
  37 H37           11.4684     4.2137    -0.6500 H       
  38 H38            9.6223     5.8383    -0.5766 H       
  39 H39           -2.5902     6.3479    -0.9427 H       
  40 H40           -0.8227     7.3562     0.4415 H       
  41 H41            0.7869     5.9216     1.6280 H       
  42 H42            0.6294     3.4730     1.4384 H       
@<TRIPOS>BOND
   1    1    2 2
   2    1    4 1
   3    1   11 1
   4    2    3 1
   5    2    6 1
   6    3   12 3
   7    4    5 1
   8    5    6 2
   9    5    7 1
  10    6   10 1
  11    7    8 1
  12    7    9 2
  13    8   14 1
  14    8   18 2
  15   10   29 1
  16   10   30 1
  17   11   13 1
  18   11   31 1
  19   13   15 ar
  20   13   28 ar
  21   14   16 1
  22   15   25 ar
  23   15   32 1
  24   16   17 2
  25   17   18 1
  26   17   19 1
  27   18   33 1
  28   19   20 ar
  29   19   21 ar
  30   20   24 ar
  31   20   34 1
  32   21   22 ar
  33   21   35 1
  34   22   23 ar
  35   22   36 1
  36   23   24 ar
  37   23   37 1
  38   24   38 1
  39   25   26 ar
  40   25   39 1
  41   26   27 ar
  42   26   40 1
  43   27   28 ar
  44   27   41 1
  45   28   42 1

#	End of record

