#	Name: ASD03910043
#	Creating user name:	WinNT
#	Creation time:	15. 06. 2019 20:47

#	Modifying user name:	WinNT
#	Modification time:	15. 06. 2019 20:47

#	Program:	/corina/corina34_cracker 3.40 0067  02.08.2006

@<TRIPOS>MOLECULE
ASD03910043
  72   75    0    0    0
SMALL
NO_CHARGES


@<TRIPOS>ATOM
   1 C1             1.0225    14.6466    -7.8489 C.ar    
   2 C2             0.4791    15.7591    -7.2331 C.ar    
   3 C3             0.1409    15.7152    -5.8930 C.ar    
   4 C4             0.3456    14.5594    -5.1651 C.ar    
   5 C5             0.8912    13.4405    -5.7805 C.ar    
   6 C6             1.2240    13.4858    -7.1280 C.ar    
   7 N7             1.0998    12.2680    -5.0459 N.am    
   8 C8             0.2234    11.9085    -4.0872 C.2     
   9 O9            -0.7031    12.6396    -3.8075 O.2     
  10 C10           -0.7083    10.4372    -2.3484 C.ar    
  11 C11           -1.8917     9.8191    -2.7081 C.ar    
  12 C12           -2.9021     9.6651    -1.7787 C.ar    
  13 C13           -2.7287    10.1312    -0.4836 C.ar    
  14 C14           -1.5404    10.7511    -0.1253 C.ar    
  15 C15           -0.5331    10.9027    -1.0584 C.ar    
  16 O16           -3.7214     9.9813     0.4324 O.3     
  17 C17           -3.4339    10.3854     1.7726 C.3     
  18 C18           -3.1024    11.8553     1.7940 C.2     
  19 C19            1.3896    14.6988    -9.3095 C.3     
  20 C20           -0.4511    16.9299    -5.2259 C.3     
  21 O21           -3.1114    12.4940     0.7630 O.2     
  22 N22           -2.7958    12.4601     2.9588 N.am    
  23 C23            0.3946    10.5983    -3.3626 C.3     
  24 C24           -4.6550    10.1250     2.6568 C.3     
  25 C25           -2.2414     9.5859     2.3016 C.3     
  26 C26           -2.4736    13.8891     2.9796 C.3     
  27 C27           -3.7472    14.6900     3.0654 C.2     
  28 O28           -4.8146    14.1252     3.1051 O.2     
  29 O29           -3.6959    16.0309     3.0977 O.3     
  30 C30           -1.5952    14.1962     4.1940 C.3     
  31 C31           -0.2714    13.4910     4.0477 C.2     
  32 C32            0.9013    13.9814     3.3196 C.ar    
  33 C33            1.8889    12.9897     3.4603 C.ar    
  34 N34            1.3438    11.9784     4.2193 N.pl3   
  35 C35            0.0588    12.2970     4.5648 C.2     
  36 C36            1.1758    15.1394     2.5892 C.ar    
  37 C37            2.4042    15.3033     2.0142 C.ar    
  38 C38            3.3822    14.3273     2.1498 C.ar    
  39 C39            3.1330    13.1778     2.8666 C.ar    
  40 H40            0.3187    16.6643    -7.7999 H       
  41 H41            0.0819    14.5260    -4.1183 H       
  42 H42            1.6482    12.6172    -7.6096 H       
  43 H43            1.8752    11.7139    -5.2266 H       
  44 H44           -2.0263     9.4566    -3.7165 H       
  45 H45           -3.8264     9.1825    -2.0602 H       
  46 H46           -1.4031    11.1152     0.8822 H       
  47 H47            0.3922    11.3852    -0.7799 H       
  48 H48            2.4214    15.0346    -9.4131 H       
  49 H49            1.2852    13.7055    -9.7461 H       
  50 H50            0.7277    15.3940    -9.8259 H       
  51 H51           -1.5372    16.8996    -5.3137 H       
  52 H52           -0.1719    16.9382    -4.1723 H       
  53 H53           -0.0726    17.8306    -5.7092 H       
  54 H54           -2.7886    11.9492     3.7833 H       
  55 H55            0.3517     9.7783    -4.0795 H       
  56 H56            1.3593    10.5871    -2.8552 H       
  57 H57           -4.8434     9.0527     2.7096 H       
  58 H58           -4.4669    10.5106     3.6588 H       
  59 H59           -5.5247    10.6263     2.2320 H       
  60 H60           -1.4111     9.6646     1.5998 H       
  61 H61           -1.9378     9.9841     3.2698 H       
  62 H62           -2.5258     8.5395     2.4121 H       
  63 H63           -1.9384    14.1541     2.0677 H       
  64 H64           -4.5390    16.5014     3.1529 H       
  65 H65           -1.4288    15.2714     4.2596 H       
  66 H66           -2.0933    13.8497     5.0996 H       
  67 H67            1.8036    11.1633     4.4742 H       
  68 H68           -0.5955    11.6763     5.1589 H       
  69 H69            0.4196    15.9025     2.4789 H       
  70 H70            2.6161    16.1991     1.4493 H       
  71 H71            4.3484    14.4711     1.6891 H       
  72 H72            3.9005    12.4245     2.9666 H       
@<TRIPOS>BOND
   1    1    2 ar
   2    1   19 1
   3    1    6 ar
   4    2    3 ar
   5    2   40 1
   6    3    4 ar
   7    3   20 1
   8    4    5 ar
   9    4   41 1
  10    5    6 ar
  11    5    7 1
  12    6   42 1
  13    7    8 am
  14    7   43 1
  15    8    9 2
  16    8   23 1
  17   10   11 ar
  18   10   15 ar
  19   10   23 1
  20   11   12 ar
  21   11   44 1
  22   12   13 ar
  23   12   45 1
  24   13   14 ar
  25   13   16 1
  26   14   15 ar
  27   14   46 1
  28   15   47 1
  29   16   17 1
  30   17   18 1
  31   17   24 1
  32   17   25 1
  33   18   21 2
  34   18   22 am
  35   19   48 1
  36   19   49 1
  37   19   50 1
  38   20   51 1
  39   20   52 1
  40   20   53 1
  41   22   26 1
  42   22   54 1
  43   23   55 1
  44   23   56 1
  45   24   57 1
  46   24   58 1
  47   24   59 1
  48   25   60 1
  49   25   61 1
  50   25   62 1
  51   26   27 1
  52   26   30 1
  53   26   63 1
  54   27   28 2
  55   27   29 1
  56   29   64 1
  57   30   31 1
  58   30   65 1
  59   30   66 1
  60   31   32 1
  61   31   35 2
  62   32   33 ar
  63   32   36 ar
  64   33   34 1
  65   33   39 ar
  66   34   35 1
  67   34   67 1
  68   35   68 1
  69   36   37 ar
  70   36   69 1
  71   37   38 ar
  72   37   70 1
  73   38   39 ar
  74   38   71 1
  75   39   72 1

#	End of record

