#	Name: ASD05430228
#	Creating user name:	WinNT
#	Creation time:	15. 06. 2019 21:00

#	Modifying user name:	WinNT
#	Modification time:	15. 06. 2019 21:00

#	Program:	/corina/corina34_cracker 3.40 0067  02.08.2006

@<TRIPOS>MOLECULE
ASD05430228
  74   81    0    0    0
SMALL
NO_CHARGES


@<TRIPOS>ATOM
   1 C1            -0.5331     0.5883    -1.9848 C.ar    
   2 C2            -0.5844    -0.7577    -1.6231 C.ar    
   3 C3            -1.7266    -1.2768    -1.0264 C.ar    
   4 C4            -2.8137    -0.4645    -0.7892 C.ar    
   5 C5            -2.7693     0.8864    -1.1493 C.ar    
   6 C6            -1.6180     1.4103    -1.7446 C.ar    
   7 C7            -5.4546    -0.1722    -1.4096 C.3     
   8 C8            -5.1745     1.2437    -0.9316 C.2     
   9 C9            -3.9303     1.7557    -0.8970 C.2     
  10 C10           -6.7274    -0.1399    -2.2658 C.3     
  11 C11           -7.9824     0.3945    -1.5637 C.3     
  12 N12           -7.6479     1.6500    -0.8950 N.pl3   
  13 C13           -6.3592     2.0221    -0.5075 C.2     
  14 N14            0.5180    -1.5881    -1.8625 N.pl3   
  15 C15            0.6195    -2.8998    -1.5718 C.2     
  16 N16            1.7354    -1.2208    -2.4588 N.2     
  17 C17            2.4811    -2.2945    -2.4884 C.2     
  18 N18            1.8034    -3.3084    -1.9513 N.2     
  19 C19            3.8796    -2.3737    -3.0444 C.3     
  20 C20           -8.5278     2.7568    -0.5127 C.3     
  21 O21           -7.7421     3.4816     0.4564 O.3     
  22 N22           -6.3980     3.0728     0.2438 N.2     
  23 C23           -8.8424     3.6394    -1.7222 C.3     
  24 N24           -9.7225     4.7360    -1.3108 N.am    
  25 C25          -10.4603     1.1677    -0.4593 C.ar    
  26 C26           -9.7964     2.2365     0.1125 C.ar    
  27 O27            0.5861     1.0931    -2.5686 O.3     
  28 C28            0.5691     2.4799    -2.9128 C.3     
  29 C29           -6.5694     0.1588    -3.7562 C.3     
  30 C30           -6.9153    -1.2576    -3.2917 C.3     
  31 C31          -11.6240     0.6895     0.1133 C.ar    
  32 C32          -12.1250     1.2814     1.2602 C.ar    
  33 C33          -11.4595     2.3520     1.8331 C.ar    
  34 C34          -10.2956     2.8289     1.2590 C.ar    
  35 F35          -13.2625     0.8148     1.8200 F       
  36 C36           -9.2931     5.9324    -0.8704 C.2     
  37 C37          -11.0665     4.6811    -1.3292 C.2     
  38 C38          -11.5973     5.9730    -0.8453 C.ar    
  39 C39          -10.4705     6.7680    -0.5538 C.ar    
  40 O40          -11.7323     3.7294    -1.6840 O.2     
  41 O41           -8.1323     6.2693    -0.7523 O.2     
  42 C42          -12.8704     6.4848    -0.6519 C.ar    
  43 C43          -13.0264     7.7748    -0.1693 C.ar    
  44 C44          -11.9214     8.5532     0.1199 C.ar    
  45 C45          -10.6419     8.0564    -0.0735 C.ar    
  46 Br46          -9.3856     4.2905     2.0410 Br      
  47 H47           -1.7624    -2.3197    -0.7482 H       
  48 H48           -3.7004    -0.8708    -0.3255 H       
  49 H49           -1.5795     2.4528    -2.0238 H       
  50 H50           -4.6172    -0.5317    -2.0076 H       
  51 H51           -5.6041    -0.8279    -0.5518 H       
  52 H52           -3.7836     2.8043    -0.6841 H       
  53 H53           -8.7664     0.5703    -2.3003 H       
  54 H54           -8.3262    -0.3316    -0.8271 H       
  55 H55           -0.1425    -3.5075    -1.1066 H       
  56 H56            4.5976    -2.1537    -2.2544 H       
  57 H57            4.0607    -3.3766    -3.4310 H       
  58 H58            3.9920    -1.6480    -3.8499 H       
  59 H59           -7.9156     4.0487    -2.1242 H       
  60 H60           -9.3385     3.0431    -2.4880 H       
  61 H61          -10.0720     0.7086    -1.3564 H       
  62 H62           -0.2400     2.6693    -3.6182 H       
  63 H63            0.4138     3.0756    -2.0133 H       
  64 H64            1.5205     2.7526    -3.3694 H       
  65 H65           -7.3572     0.7363    -4.2400 H       
  66 H66           -5.5607     0.3336    -4.1303 H       
  67 H67           -6.1341    -2.0146    -3.3602 H       
  68 H68           -7.9306    -1.6119    -3.4699 H       
  69 H69          -12.1425    -0.1456    -0.3341 H       
  70 H70          -11.8497     2.8147     2.7276 H       
  71 H71          -13.7374     5.8812    -0.8766 H       
  72 H72          -14.0183     8.1746    -0.0186 H       
  73 H73          -12.0559     9.5568     0.4954 H       
  74 H74           -9.7821     8.6690     0.1546 H       
@<TRIPOS>BOND
   1    1    2 ar
   2    1   27 1
   3    1    6 ar
   4    2    3 ar
   5    2   14 1
   6    3    4 ar
   7    3   47 1
   8    4    5 ar
   9    4   48 1
  10    5    6 ar
  11    5    9 1
  12    6   49 1
  13    7    8 1
  14    7   10 1
  15    7   50 1
  16    7   51 1
  17    8    9 2
  18    8   13 1
  19    9   52 1
  20   10   11 1
  21   10   29 1
  22   10   30 1
  23   11   12 1
  24   11   53 1
  25   11   54 1
  26   12   13 1
  27   12   20 1
  28   13   22 2
  29   14   15 1
  30   14   16 1
  31   15   18 2
  32   15   55 1
  33   16   17 2
  34   17   18 1
  35   17   19 1
  36   19   56 1
  37   19   57 1
  38   19   58 1
  39   20   21 1
  40   20   23 1
  41   20   26 1
  42   21   22 1
  43   23   24 1
  44   23   59 1
  45   23   60 1
  46   24   36 am
  47   24   37 am
  48   25   26 ar
  49   25   31 ar
  50   25   61 1
  51   26   34 ar
  52   27   28 1
  53   28   62 1
  54   28   63 1
  55   28   64 1
  56   29   30 1
  57   29   65 1
  58   29   66 1
  59   30   67 1
  60   30   68 1
  61   31   32 ar
  62   31   69 1
  63   32   33 ar
  64   32   35 1
  65   33   34 ar
  66   33   70 1
  67   34   46 1
  68   36   41 2
  69   36   39 1
  70   37   38 1
  71   37   40 2
  72   38   39 ar
  73   38   42 ar
  74   39   45 ar
  75   42   43 ar
  76   42   71 1
  77   43   44 ar
  78   43   72 1
  79   44   45 ar
  80   44   73 1
  81   45   74 1

#	End of record

