#	Name: ASD02038993
#	Creating user name:	WinNT
#	Creation time:	15. 06. 2019 20:17

#	Modifying user name:	WinNT
#	Modification time:	15. 06. 2019 20:17

#	Program:	/corina/corina34_cracker 3.40 0067  02.08.2006

@<TRIPOS>MOLECULE
ASD02038993
  45   48    0    0    0
SMALL
NO_CHARGES


@<TRIPOS>ATOM
   1 N1             0.0234     1.2844    -0.3603 N.2     
   2 N2             0.0399    -0.0020    -0.3613 N.2     
   3 C3             1.2244     1.7332    -0.0873 C.2     
   4 O4             2.0204     0.6621     0.0886 O.3     
   5 C5             1.2411    -0.4221    -0.0915 C.2     
   6 N6             1.6034     3.0605     0.0025 N.pl3   
   7 C7             0.6392     4.0715    -0.0888 C.ar    
   8 C8             1.6810    -1.8604     0.0026 C.3     
   9 O9             2.1170    -2.3102    -1.2818 O.3     
  10 C10            2.5498    -3.5960    -1.3714 C.ar    
  11 C11            2.9871    -4.0973    -2.5891 C.ar    
  12 C12            2.5593    -4.4044    -0.2443 C.ar    
  13 C13            2.9988    -5.7107    -0.3342 C.ar    
  14 C14            3.4310    -6.2144    -1.5533 C.ar    
  15 C15            3.4263    -5.4026    -2.6802 C.ar    
  16 C16           -0.6629     3.8296     0.3290 C.ar    
  17 C17            0.9858     5.3186    -0.5920 C.ar    
  18 C18            0.0341     6.3152    -0.6818 C.ar    
  19 C19           -1.2675     6.0711    -0.2691 C.ar    
  20 C20           -1.6133     4.8273     0.2386 C.ar    
  21 O21           -2.2038     7.0534    -0.3570 O.3     
  22 N22            3.8769    -7.5384    -1.6486 N.am    
  23 C23            4.6293    -7.9308    -2.6929 C.2     
  24 C24            5.0225    -6.9543    -3.7684 C.3     
  25 C25            3.8952    -5.9526    -4.0022 C.3     
  26 O26            4.9952    -9.0848    -2.7681 O.2     
  27 C27           -3.5241     6.7327     0.0859 C.3     
  28 F28           -3.4873     6.3682     1.4360 F       
  29 F29           -4.3532     7.8482    -0.0736 F       
  30 F30           -4.0241     5.6679    -0.6713 F       
  31 H31            2.5372     3.2907     0.1287 H       
  32 H32            2.5022    -1.9433     0.7146 H       
  33 H33            0.8456    -2.4747     0.3384 H       
  34 H34            2.9835    -3.4662    -3.4656 H       
  35 H35            2.2231    -4.0120     0.7041 H       
  36 H36            3.0066    -6.3397     0.5437 H       
  37 H37           -0.9322     2.8613     0.7243 H       
  38 H38            1.9993     5.5091    -0.9127 H       
  39 H39            0.3035     7.2852    -1.0731 H       
  40 H40           -2.6269     4.6381     0.5597 H       
  41 H41            3.6421    -8.1768    -0.9571 H       
  42 H42            5.9203    -6.4185    -3.4602 H       
  43 H43            5.2249    -7.4957    -4.6925 H       
  44 H44            3.0642    -6.4511    -4.5011 H       
  45 H45            4.2579    -5.1373    -4.6281 H       
@<TRIPOS>BOND
   1    1    2 1
   2    1    3 2
   3    2    5 2
   4    3    4 1
   5    3    6 1
   6    4    5 1
   7    5    8 1
   8    6    7 1
   9    6   31 1
  10    7   16 ar
  11    7   17 ar
  12    8    9 1
  13    8   32 1
  14    8   33 1
  15    9   10 1
  16   10   11 ar
  17   10   12 ar
  18   11   15 ar
  19   11   34 1
  20   12   13 ar
  21   12   35 1
  22   13   14 ar
  23   13   36 1
  24   14   15 ar
  25   14   22 1
  26   15   25 1
  27   16   20 ar
  28   16   37 1
  29   17   18 ar
  30   17   38 1
  31   18   19 ar
  32   18   39 1
  33   19   20 ar
  34   19   21 1
  35   20   40 1
  36   21   27 1
  37   22   23 am
  38   22   41 1
  39   23   24 1
  40   23   26 2
  41   24   25 1
  42   24   42 1
  43   24   43 1
  44   25   44 1
  45   25   45 1
  46   27   28 1
  47   27   29 1
  48   27   30 1

#	End of record

