#	Name: ASD01911781
#	Creating user name:	WinNT
#	Creation time:	15. 06. 2019 19:58

#	Modifying user name:	WinNT
#	Modification time:	15. 06. 2019 19:58

#	Program:	/corina/corina34_cracker 3.40 0067  02.08.2006

@<TRIPOS>MOLECULE
ASD01911781
  43   45    0    0    0
SMALL
NO_CHARGES


@<TRIPOS>ATOM
   1 C1            -0.0187     1.5258     0.0104 C.3     
   2 C2             0.0021    -0.0041     0.0020 C.3     
   3 C3            -1.4117    -0.5257     0.0127 C.2     
   4 C4            -1.8174    -1.6815     0.5528 C.2     
   5 S5            -2.8168     0.2846    -0.6770 S.3     
   6 C6            -3.8372    -1.0558    -0.1612 C.2     
   7 N7            -3.0985    -1.9429     0.4497 N.2     
   8 C8            -5.2500    -1.1542    -0.3729 C.1     
   9 C9            -6.4083    -1.2349    -0.5465 C.1     
  10 C10           -7.8211    -1.3333    -0.7582 C.ar    
  11 C11           -8.5239    -2.4516    -0.3002 C.ar    
  12 C12           -9.8845    -2.5390    -0.5074 C.ar    
  13 C13          -10.5541    -1.5232    -1.1669 C.ar    
  14 C14           -9.8653    -0.4133    -1.6237 C.ar    
  15 C15           -8.5055    -0.3089    -1.4189 C.ar    
  16 C16           -0.7348     2.0192     1.2692 C.3     
  17 C17            1.4167     2.0553    -0.0004 C.3     
  18 C18            1.3960     3.5852     0.0080 C.3     
  19 C19            0.6798     4.0786     1.2668 C.3     
  20 C20           -0.7556     3.5490     1.2776 C.3     
  21 C21            0.7182    -0.4975    -1.2568 C.3     
  22 O22            0.6932    -0.4774     1.1597 O.3     
  23 H23           -0.5459     1.8868    -0.8726 H       
  24 H24           -1.1320    -2.3571     1.0428 H       
  25 H25           -8.0026    -3.2453     0.2143 H       
  26 H26          -10.4287    -3.4025    -0.1544 H       
  27 H27          -11.6197    -1.5973    -1.3263 H       
  28 H28          -10.3946     0.3753    -2.1379 H       
  29 H29           -7.9693     0.5581    -1.7756 H       
  30 H30           -1.7574     1.6419     1.2770 H       
  31 H31           -0.2076     1.6581     2.1523 H       
  32 H32            1.9439     1.6943     0.8826 H       
  33 H33            1.9269     1.7038    -0.8972 H       
  34 H34            2.4186     3.9625     0.0002 H       
  35 H35            0.8688     3.9463    -0.8751 H       
  36 H36            1.2070     3.7175     2.1498 H       
  37 H37            0.6650     5.1685     1.2728 H       
  38 H38           -1.2827     3.9101     0.3946 H       
  39 H39           -1.2657     3.9005     2.1744 H       
  40 H40            1.7408    -0.1202    -1.2645 H       
  41 H41            0.7330    -1.5874    -1.2628 H       
  42 H42            0.1910    -0.1364    -2.1398 H       
  43 H43            0.2938    -0.2021     1.9962 H       
@<TRIPOS>BOND
   1    1    2 1
   2    1   17 1
   3    1   16 1
   4    1   23 1
   5    2    3 1
   6    2   21 1
   7    2   22 1
   8    3    4 2
   9    3    5 1
  10    4    7 1
  11    4   24 1
  12    5    6 1
  13    6    7 2
  14    6    8 1
  15    8    9 3
  16    9   10 1
  17   10   11 ar
  18   10   15 ar
  19   11   12 ar
  20   11   25 1
  21   12   13 ar
  22   12   26 1
  23   13   14 ar
  24   13   27 1
  25   14   15 ar
  26   14   28 1
  27   15   29 1
  28   16   20 1
  29   16   30 1
  30   16   31 1
  31   17   18 1
  32   17   32 1
  33   17   33 1
  34   18   19 1
  35   18   34 1
  36   18   35 1
  37   19   20 1
  38   19   36 1
  39   19   37 1
  40   20   38 1
  41   20   39 1
  42   21   40 1
  43   21   41 1
  44   21   42 1
  45   22   43 1

#	End of record

