#	Name: ASD01812715
#	Creating user name:	WinNT
#	Creation time:	15. 06. 2019 19:29

#	Modifying user name:	WinNT
#	Modification time:	15. 06. 2019 19:29

#	Program:	/corina/corina34_cracker 3.40 0067  02.08.2006

@<TRIPOS>MOLECULE
ASD01812715
  53   57    0    0    0
SMALL
NO_CHARGES


@<TRIPOS>ATOM
   1 C1            -0.0167     1.3765     0.0233 C.ar    
   2 C2             0.0018    -0.0040     0.0178 C.ar    
   3 C3             1.2084    -0.6873    -0.0064 C.ar    
   4 C4             2.3936     0.0073    -0.0256 C.ar    
   5 C5             2.3937     1.4055    -0.0208 C.ar    
   6 C6             1.1718     2.0915     0.0041 C.ar    
   7 C7             3.8405    -0.4180    -0.0538 C.3     
   8 N8             4.6306     0.8185    -0.0642 N.am    
   9 C9             3.7910     1.8681    -0.0451 C.2     
  10 C10            6.0933     0.8963    -0.0905 C.3     
  11 C11            6.5690     0.9275    -1.5201 C.ar    
  12 C12            6.7233     2.1385    -2.1697 C.ar    
  13 C13            7.1591     2.1703    -3.4799 C.ar    
  14 C14            7.4424     0.9849    -4.1448 C.ar    
  15 C15            7.2866    -0.2294    -3.4899 C.ar    
  16 C16            6.8558    -0.2545    -2.1778 C.ar    
  17 O17            1.1515     3.4479     0.0091 O.3     
  18 O18            4.1366     3.0338    -0.0471 O.2     
  19 C19           -0.1276     4.0779    -0.0868 C.3     
  20 N20            8.0847     2.1619    -6.2521 N.2     
  21 N21            7.8845     1.0139    -5.4747 N.pl3   
  22 C22            8.1940    -0.0613    -6.2342 C.2     
  23 C23            8.5770     0.3905    -7.4508 C.2     
  24 C24            8.4995     1.7875    -7.4356 C.2     
  25 C25            0.0357     5.4819    -0.6770 C.3     
  26 C26           -1.3276     6.1779    -0.7027 C.3     
  27 O27           -1.8630     6.2230     0.6214 O.3     
  28 C28           -2.0816     4.9376     1.2064 C.3     
  29 C29           -0.7486     4.1918     1.3089 C.3     
  30 O30            0.5471     5.3839    -2.0078 O.3     
  31 H31           -0.9603     1.9017     0.0381 H       
  32 H32           -0.9274    -0.5542     0.0328 H       
  33 H33            1.2163    -1.7672    -0.0099 H       
  34 H34            4.0758    -1.0055     0.8337 H       
  35 H35            4.0427    -0.9994    -0.9533 H       
  36 H36            6.4182     1.8027     0.4204 H       
  37 H37            6.5126     0.0252     0.4130 H       
  38 H38            6.5024     3.0603    -1.6521 H       
  39 H39            7.2791     3.1164    -3.9868 H       
  40 H40            7.5058    -1.1532    -4.0046 H       
  41 H41            6.7389    -1.1985    -1.6664 H       
  42 H42           -0.7786     3.4855    -0.7297 H       
  43 H43            8.1446    -1.0950    -5.9251 H       
  44 H44            8.8880    -0.2195    -8.2861 H       
  45 H45            8.7405     2.4438    -8.2587 H       
  46 H46            0.7271     6.0576    -0.0616 H       
  47 H47           -1.2103     7.1930    -1.0822 H       
  48 H48           -2.0065     5.6236    -1.3507 H       
  49 H49           -2.5075     5.0592     2.2024 H       
  50 H50           -2.7704     4.3671     0.5834 H       
  51 H51           -0.9194     3.1944     1.7140 H       
  52 H52           -0.0731     4.7414     1.9644 H       
  53 H53            0.6757     6.2375    -2.4436 H       
@<TRIPOS>BOND
   1    1    2 ar
   2    1    6 ar
   3    1   31 1
   4    2    3 ar
   5    2   32 1
   6    3    4 ar
   7    3   33 1
   8    4    7 1
   9    4    5 ar
  10    5    6 ar
  11    5    9 1
  12    6   17 1
  13    7    8 1
  14    7   34 1
  15    7   35 1
  16    8    9 am
  17    8   10 1
  18    9   18 2
  19   10   11 1
  20   10   36 1
  21   10   37 1
  22   11   12 ar
  23   11   16 ar
  24   12   13 ar
  25   12   38 1
  26   13   14 ar
  27   13   39 1
  28   14   15 ar
  29   14   21 1
  30   15   16 ar
  31   15   40 1
  32   16   41 1
  33   17   19 1
  34   19   25 1
  35   19   29 1
  36   19   42 1
  37   20   21 1
  38   20   24 2
  39   21   22 1
  40   22   23 2
  41   22   43 1
  42   23   24 1
  43   23   44 1
  44   24   45 1
  45   25   26 1
  46   25   30 1
  47   25   46 1
  48   26   27 1
  49   26   47 1
  50   26   48 1
  51   27   28 1
  52   28   29 1
  53   28   49 1
  54   28   50 1
  55   29   51 1
  56   29   52 1
  57   30   53 1

#	End of record

