#	Name: ASD07300974
#	Creating user name:	WinNT
#	Creation time:	15. 06. 2019 21:10

#	Modifying user name:	WinNT
#	Modification time:	15. 06. 2019 21:10

#	Program:	/corina/corina34_cracker 3.40 0067  02.08.2006

@<TRIPOS>MOLECULE
ASD07300974
  34   35    0    0    0
SMALL
NO_CHARGES


@<TRIPOS>ATOM
   1 C1             0.0050     1.4259    -0.3232 C.2     
   2 C2             0.0016    -0.0033     0.0066 C.2     
   3 C3             1.2153    -0.5881     0.3228 C.2     
   4 C4             2.3585     0.2279     0.3048 C.2     
   5 N5             2.2568     1.5297    -0.0113 N.am    
   6 N6             1.1413     2.0887    -0.3068 N.2     
   7 C7            -1.2531     2.1123    -0.6758 C.2     
   8 O8            -2.2983     1.4934    -0.6939 O.2     
   9 O9            -1.2423     3.4255    -0.9776 O.3     
  10 C10            3.4182     2.3094    -0.0177 C.ar    
  11 C11            3.7032     3.1252    -1.1056 C.ar    
  12 C12            4.8502     3.8939    -1.1085 C.ar    
  13 C13            5.7151     3.8523    -0.0300 C.ar    
  14 C14            5.4346     3.0415     1.0543 C.ar    
  15 C15            4.2863     2.2741     1.0660 C.ar    
  16 C16            5.1603     4.7787    -2.2884 C.3     
  17 F17            4.5946     6.0420    -2.0853 F       
  18 F18            6.5469     4.9051    -2.4248 F       
  19 F19            4.6273     4.2104    -3.4503 F       
  20 O20            3.4489    -0.2477     0.5777 O.2     
  21 O21           -1.1449    -0.7228     0.0023 O.3     
  22 C22           -1.0429    -2.1081     0.3376 C.3     
  23 C23           -2.5165     4.0347    -1.3149 C.3     
  24 H24            1.2813    -1.6361     0.5752 H       
  25 H25            3.0284     3.1579    -1.9483 H       
  26 H26            6.6118     4.4543    -0.0349 H       
  27 H27            6.1122     3.0111     1.8947 H       
  28 H28            4.0655     1.6443     1.9152 H       
  29 H29           -2.0313    -2.5657     0.2963 H       
  30 H30           -0.3820    -2.6060    -0.3720 H       
  31 H31           -0.6374    -2.2093     1.3443 H       
  32 H32           -2.3666     5.0915    -1.5360 H       
  33 H33           -2.9374     3.5369    -2.1884 H       
  34 H34           -3.2018     3.9332    -0.4734 H       
@<TRIPOS>BOND
   1    1    2 1
   2    1    6 2
   3    1    7 1
   4    2    3 2
   5    2   21 1
   6    3    4 1
   7    3   24 1
   8    4    5 am
   9    4   20 2
  10    5    6 1
  11    5   10 1
  12    7    8 2
  13    7    9 1
  14    9   23 1
  15   10   11 ar
  16   10   15 ar
  17   11   12 ar
  18   11   25 1
  19   12   13 ar
  20   12   16 1
  21   13   14 ar
  22   13   26 1
  23   14   15 ar
  24   14   27 1
  25   15   28 1
  26   16   17 1
  27   16   18 1
  28   16   19 1
  29   21   22 1
  30   22   29 1
  31   22   30 1
  32   22   31 1
  33   23   32 1
  34   23   33 1
  35   23   34 1

#	End of record

