#	Name: ASD02038833
#	Creating user name:	WinNT
#	Creation time:	15. 06. 2019 20:17

#	Modifying user name:	WinNT
#	Modification time:	15. 06. 2019 20:17

#	Program:	/corina/corina34_cracker 3.40 0067  02.08.2006

@<TRIPOS>MOLECULE
ASD02038833
  52   55    0    0    0
SMALL
NO_CHARGES


@<TRIPOS>ATOM
   1 C1            -1.2823    -0.8514     0.4655 C.2     
   2 C2            -0.0607    -0.0344     0.3017 C.2     
   3 N3             1.1368    -0.6350     0.1537 N.am    
   4 C4             1.2420    -2.0930     0.2502 C.3     
   5 C5             1.2142    -2.6912    -1.1327 C.ar    
   6 C6             2.3332     0.1703    -0.1038 C.3     
   7 O7            -0.1365     1.1787     0.3005 O.2     
   8 N8            -1.3377    -2.1954     0.4968 N.2     
   9 C9            -2.5931    -2.5289     0.6564 C.2     
  10 N10           -3.3112    -1.3926     0.7236 N.pl3   
  11 N11           -2.5060    -0.3928     0.6122 N.2     
  12 C12            2.3972    -3.0119    -1.7679 C.ar    
  13 C13            2.1213     1.0145    -1.3642 C.3     
  14 C14            3.3440     1.9099    -1.5808 C.3     
  15 O15            3.5435     2.7287    -0.4268 O.3     
  16 C16            3.7936     1.9944     0.7734 C.3     
  17 C17            2.5890     1.1024     1.0846 C.3     
  18 C18            0.0034    -2.9229    -1.7599 C.ar    
  19 C19           -0.0307    -3.4724    -3.0286 C.ar    
  20 C20            1.1472    -3.7929    -3.6770 C.ar    
  21 C21            2.3712    -3.5654    -3.0460 C.ar    
  22 C22            3.6395    -3.9067    -3.7356 C.ar    
  23 C23            4.4652    -4.9066    -3.2259 C.ar    
  24 C24           -4.7630    -1.3068     0.8996 C.3     
  25 F25            1.1136    -4.3302    -4.9162 F       
  26 C26            5.6439    -5.2209    -3.8713 C.ar    
  27 C27            6.0071    -4.5450    -5.0235 C.ar    
  28 C28            5.1912    -3.5502    -5.5346 C.ar    
  29 C29            4.0068    -3.2318    -4.8997 C.ar    
  30 Cl30           7.4912    -4.9457    -5.8300 Cl      
  31 Cl31           2.9842    -1.9843    -5.5412 Cl      
  32 H32            2.1779    -2.3580     0.7420 H       
  33 H33            0.4043    -2.4801     0.8304 H       
  34 H34            3.1915    -0.4866    -0.2449 H       
  35 H35           -2.9825    -3.5341     0.7220 H       
  36 H36            3.3413    -2.8337    -1.2748 H       
  37 H37            1.9935     0.3581    -2.2250 H       
  38 H38            1.2329     1.6342    -1.2425 H       
  39 H39            4.2251     1.2891    -1.7428 H       
  40 H40            3.1805     2.5438    -2.4524 H       
  41 H41            4.6806     1.3747     0.6422 H       
  42 H42            3.9541     2.6892     1.5978 H       
  43 H43            1.7101     1.7239     1.2558 H       
  44 H44            2.7957     0.5089     1.9752 H       
  45 H45           -0.9192    -2.6739    -1.2567 H       
  46 H46           -0.9791    -3.6517    -3.5132 H       
  47 H47            4.1834    -5.4346    -2.3269 H       
  48 H48           -4.9984    -1.2669     1.9631 H       
  49 H49           -5.1357    -0.4065     0.4110 H       
  50 H50           -5.2353    -2.1831     0.4556 H       
  51 H51            6.2845    -5.9956    -3.4765 H       
  52 H52            5.4791    -3.0255    -6.4335 H       
@<TRIPOS>BOND
   1    1    2 1
   2    1    8 1
   3    1   11 2
   4    2    3 am
   5    2    7 2
   6    3    4 1
   7    3    6 1
   8    4    5 1
   9    4   32 1
  10    4   33 1
  11    5   12 ar
  12    5   18 ar
  13    6   13 1
  14    6   17 1
  15    6   34 1
  16    8    9 2
  17    9   10 1
  18    9   35 1
  19   10   11 1
  20   10   24 1
  21   12   21 ar
  22   12   36 1
  23   13   14 1
  24   13   37 1
  25   13   38 1
  26   14   15 1
  27   14   39 1
  28   14   40 1
  29   15   16 1
  30   16   17 1
  31   16   41 1
  32   16   42 1
  33   17   43 1
  34   17   44 1
  35   18   19 ar
  36   18   45 1
  37   19   20 ar
  38   19   46 1
  39   20   21 ar
  40   20   25 1
  41   21   22 1
  42   22   23 ar
  43   22   29 ar
  44   23   26 ar
  45   23   47 1
  46   24   48 1
  47   24   49 1
  48   24   50 1
  49   26   27 ar
  50   26   51 1
  51   27   28 ar
  52   27   30 1
  53   28   29 ar
  54   28   52 1
  55   29   31 1

#	End of record

