#	Name: ASD01948238
#	Creating user name:	WinNT
#	Creation time:	15. 06. 2019 20:14

#	Modifying user name:	WinNT
#	Modification time:	15. 06. 2019 20:14

#	Program:	/corina/corina34_cracker 3.40 0067  02.08.2006

@<TRIPOS>MOLECULE
ASD01948238
  32   34    0    0    0
SMALL
NO_CHARGES


@<TRIPOS>ATOM
   1 C1            -0.0167     1.3794     0.0096 C.ar    
   2 C2             0.0021    -0.0041     0.0020 C.ar    
   3 C3             1.2073    -0.6821    -0.0127 C.ar    
   4 C4             2.3974     0.0199    -0.0202 C.ar    
   5 C5             2.3837     1.4074    -0.0131 C.ar    
   6 C6             1.1707     2.0877     0.0021 C.ar    
   7 C7             4.0441     2.4166    -2.5191 C.ar    
   8 C8             4.2832     2.5444    -1.1572 C.ar    
   9 N9             3.5898     2.1219    -0.0203 N.am    
  10 C10            4.9358     2.9549    -3.4308 C.ar    
  11 C11            6.0711     3.6238    -2.9870 C.ar    
  12 C12            6.3152     3.7550    -1.6248 C.ar    
  13 C13            5.4214     3.2149    -0.7083 C.ar    
  14 N14            5.3864     3.1798     0.6868 N.am    
  15 C15            4.2771     2.5187     1.0672 C.2     
  16 O16            3.9459     2.3108     2.2197 O.2     
  17 I17           -1.7991    -1.0739     0.0134 I       
  18 F18            4.7025     2.8296    -4.7556 F       
  19 F19            1.1527     3.4386     0.0086 F       
  20 F20            2.9449     1.7625    -2.9540 F       
  21 N21            6.9720     4.1677    -3.9159 N.pl3   
  22 O22            7.4272     4.4091    -1.1902 O.3     
  23 C23            7.3085     5.8164    -0.9724 C.3     
  24 H24           -0.9594     1.9063     0.0169 H       
  25 H25            1.2183    -1.7621    -0.0178 H       
  26 H26            3.3379    -0.5111    -0.0313 H       
  27 H27            6.0487     3.5660     1.2811 H       
  28 H28            6.8023     4.0769    -4.8666 H       
  29 H29            7.7643     4.6345    -3.6071 H       
  30 H30            6.5446     6.0041    -0.2179 H       
  31 H31            8.2639     6.2127    -0.6286 H       
  32 H32            7.0264     6.3058    -1.9046 H       
@<TRIPOS>BOND
   1    1    2 ar
   2    1    6 ar
   3    1   24 1
   4    2    3 ar
   5    2   17 1
   6    3    4 ar
   7    3   25 1
   8    4    5 ar
   9    4   26 1
  10    5    6 ar
  11    5    9 1
  12    6   19 1
  13    7    8 ar
  14    7   10 ar
  15    7   20 1
  16    8    9 1
  17    8   13 ar
  18    9   15 am
  19   10   11 ar
  20   10   18 1
  21   11   12 ar
  22   11   21 1
  23   12   13 ar
  24   12   22 1
  25   13   14 1
  26   14   15 am
  27   14   27 1
  28   15   16 2
  29   21   28 1
  30   21   29 1
  31   22   23 1
  32   23   30 1
  33   23   31 1
  34   23   32 1

#	End of record

