#	Name: ASD01410032
#	Creating user name:	WinNT
#	Creation time:	15. 06. 2019 19:16

#	Modifying user name:	WinNT
#	Modification time:	15. 06. 2019 19:16

#	Program:	/corina/corina34_cracker 3.40 0067  02.08.2006

@<TRIPOS>MOLECULE
ASD01410032
  33   34    0    0    0
SMALL
NO_CHARGES


@<TRIPOS>ATOM
   1 C1            -0.0269     1.4068    -0.0668 C.ar    
   2 C2            -0.0039     0.0235    -0.0690 C.ar    
   3 C3            -1.1891    -0.6882    -0.0486 C.ar    
   4 C4            -2.4019    -0.0135    -0.0256 C.ar    
   5 C5            -2.4218     1.3734    -0.0230 C.ar    
   6 C6            -1.2351     2.0806    -0.0386 C.ar    
   7 O7            -3.5686    -0.7110    -0.0060 O.3     
   8 C8            -4.7785     0.0490     0.0171 C.3     
   9 C9            -5.9594    -0.8871     0.0365 C.2     
  10 N10           -7.2123    -0.3909     0.0599 N.am    
  11 C11           -8.3036    -1.2508    -0.0354 C.ar    
  12 C12           -8.2270    -2.3903    -0.8242 C.ar    
  13 C13           -9.3101    -3.2414    -0.9173 C.ar    
  14 C14          -10.4794    -2.9666    -0.2271 C.ar    
  15 C15          -10.5742    -1.8400     0.5610 C.ar    
  16 C16           -9.4846    -0.9725     0.6703 C.ar    
  17 C17           -9.5788     0.2339     1.5117 C.2     
  18 O18          -10.7498     0.5601     2.0932 O.3     
  19 O19           -8.6005     0.9345     1.6810 O.2     
  20 O20           -5.7823    -2.0868     0.0311 O.2     
  21 Cl21           1.4625     2.2984    -0.0924 Cl      
  22 Cl22          -1.1604    -2.4239    -0.0525 Cl      
  23 H23            0.9402    -0.5006    -0.0869 H       
  24 H24           -3.3645     1.9001    -0.0055 H       
  25 H25           -1.2507     3.1605    -0.0362 H       
  26 H26           -4.7969     0.6756     0.9088 H       
  27 H27           -4.8289     0.6791    -0.8709 H       
  28 H28           -7.3539     0.5651     0.1432 H       
  29 H29           -7.3192    -2.6113    -1.3659 H       
  30 H30           -9.2455    -4.1268    -1.5324 H       
  31 H31          -11.3212    -3.6385    -0.3074 H       
  32 H32          -11.4882    -1.6303     1.0967 H       
  33 H33          -10.7626     1.3603     2.6360 H       
@<TRIPOS>BOND
   1    1    2 ar
   2    1   21 1
   3    1    6 ar
   4    2    3 ar
   5    2   23 1
   6    3    4 ar
   7    3   22 1
   8    4    5 ar
   9    4    7 1
  10    5    6 ar
  11    5   24 1
  12    6   25 1
  13    7    8 1
  14    8    9 1
  15    8   26 1
  16    8   27 1
  17    9   10 am
  18    9   20 2
  19   10   11 1
  20   10   28 1
  21   11   12 ar
  22   11   16 ar
  23   12   13 ar
  24   12   29 1
  25   13   14 ar
  26   13   30 1
  27   14   15 ar
  28   14   31 1
  29   15   16 ar
  30   15   32 1
  31   16   17 1
  32   17   18 1
  33   17   19 2
  34   18   33 1

#	End of record

