#	Name: ASD03730042
#	Creating user name:	WinNT
#	Creation time:	15. 06. 2019 20:43

#	Modifying user name:	WinNT
#	Modification time:	15. 06. 2019 20:43

#	Program:	/corina/corina34_cracker 3.40 0067  02.08.2006

@<TRIPOS>MOLECULE
ASD03730042
  34   37    0    0    0
SMALL
NO_CHARGES


@<TRIPOS>ATOM
   1 C1            -0.0184     1.5028     0.0103 C.2     
   2 C2             0.0021    -0.0041     0.0020 C.3     
   3 O3             1.0291     2.1267     0.0037 O.co2   
   4 O4            -1.0824     2.0980     0.0186 O.co2   
   5 O5             5.6611    -1.2198     1.3884 O.3     
   6 C6             4.5879    -0.2833     1.1744 C.3     
   7 C7             3.4658    -1.1792     0.6321 C.3     
   8 C8             3.8218    -2.5398     1.1680 C.ar    
   9 C9             5.1424    -2.4615     1.6027 C.ar    
  10 C10            5.7332    -3.5889     2.1653 C.ar    
  11 C11            5.0207    -4.7661     2.2795 C.ar    
  12 C12            3.7121    -4.8349     1.8355 C.ar    
  13 C13            3.1157    -3.7175     1.2797 C.ar    
  14 N14            1.3897    -0.4735    -0.0138 N.am    
  15 C15            2.1130    -0.7212     1.0964 C.2     
  16 C16            3.4017    -1.1538    -0.8661 C.ar    
  17 C17            4.3026    -1.4569    -1.8626 C.ar    
  18 C18            3.9361    -1.3292    -3.1905 C.ar    
  19 C19            2.6632    -0.8965    -3.5150 C.ar    
  20 C20            1.7573    -0.5914    -2.5206 C.ar    
  21 C21            2.1173    -0.7175    -1.1811 C.ar    
  22 O22            1.7438    -0.5978     2.2451 O.2     
  23 Cl23           5.7700    -6.1654     2.9825 Cl      
  24 H24           -0.4983    -0.3791     0.8948 H       
  25 H25           -0.5153    -0.3696    -0.8850 H       
  26 H26            4.2900     0.1847     2.1126 H       
  27 H27            4.8720     0.4690     0.4386 H       
  28 H28            6.7544    -3.5430     2.5139 H       
  29 H29            3.1583    -5.7580     1.9223 H       
  30 H30            2.0942    -3.7682     0.9329 H       
  31 H31            5.2963    -1.7942    -1.6072 H       
  32 H32            4.6426    -1.5665    -3.9721 H       
  33 H33            2.3773    -0.7969    -4.5517 H       
  34 H34            0.7650    -0.2543    -2.7817 H       
@<TRIPOS>BOND
   1    1    2 1
   2    1    3 ar
   3    1    4 ar
   4    2   14 1
   5    2   24 1
   6    2   25 1
   7    5    6 1
   8    5    9 1
   9    6    7 1
  10    6   26 1
  11    6   27 1
  12    7    8 1
  13    7   15 1
  14    7   16 1
  15    8    9 ar
  16    8   13 ar
  17    9   10 ar
  18   10   11 ar
  19   10   28 1
  20   11   12 ar
  21   11   23 1
  22   12   13 ar
  23   12   29 1
  24   13   30 1
  25   14   15 am
  26   14   21 1
  27   15   22 2
  28   16   17 ar
  29   16   21 ar
  30   17   18 ar
  31   17   31 1
  32   18   19 ar
  33   18   32 1
  34   19   20 ar
  35   19   33 1
  36   20   21 ar
  37   20   34 1

#	End of record

