#	Name: ASD04550051
#	Creating user name:	WinNT
#	Creation time:	15. 06. 2019 20:49

#	Modifying user name:	WinNT
#	Modification time:	15. 06. 2019 20:49

#	Program:	/corina/corina34_cracker 3.40 0067  02.08.2006

@<TRIPOS>MOLECULE
ASD04550051
  29   29    0    0    0
SMALL
NO_CHARGES


@<TRIPOS>ATOM
   1 C1            -0.8627     1.6068     0.1580 C.ar    
   2 C2            -0.4998     0.2721     0.0297 C.ar    
   3 C3             0.8393    -0.0701    -0.1092 C.ar    
   4 C4             1.8052     0.9170    -0.1195 C.ar    
   5 C5             1.4405     2.2447     0.0089 C.ar    
   6 C6             0.1082     2.5888     0.1469 C.ar    
   7 C7             2.4972     3.3190    -0.0022 C.3     
   8 C8             2.2387     4.2767    -1.1671 C.3     
   9 N9            -1.4791    -0.7237     0.0409 N.am    
  10 S10           -1.4460    -1.9305    -1.0926 S.o2    
  11 O11           -0.1433    -2.4859    -0.9752 O.2     
  12 O12           -2.6018    -2.7076    -0.8111 O.2     
  13 C13            2.4505     4.0830     1.2959 C.2     
  14 O14            1.6421     3.7856     2.1432 O.2     
  15 O15            3.3071     5.0939     1.5110 O.3     
  16 C16           -1.6296    -1.0677    -2.6777 C.3     
  17 F17           -0.5132    -0.2537    -2.8976 F       
  18 F18           -1.7331    -2.0061    -3.7102 F       
  19 F19           -2.7840    -0.2780    -2.6478 F       
  20 H20           -1.9033     1.8765     0.2617 H       
  21 H21            1.1249    -1.1069    -0.2088 H       
  22 H22            2.8465     0.6516    -0.2275 H       
  23 H23           -0.1732     3.6267     0.2470 H       
  24 H24            3.4795     2.8613    -0.1193 H       
  25 H25            2.2724     3.7241    -2.1061 H       
  26 H26            1.2564     4.7344    -1.0500 H       
  27 H27            3.0030     5.0537    -1.1752 H       
  28 H28           -2.1787    -0.7084     0.7127 H       
  29 H29            3.2390     5.5542     2.3586 H       
@<TRIPOS>BOND
   1    1    2 ar
   2    1    6 ar
   3    1   20 1
   4    2    3 ar
   5    2    9 1
   6    3    4 ar
   7    3   21 1
   8    4    5 ar
   9    4   22 1
  10    5    6 ar
  11    5    7 1
  12    6   23 1
  13    7    8 1
  14    7   13 1
  15    7   24 1
  16    8   25 1
  17    8   26 1
  18    8   27 1
  19    9   10 am
  20    9   28 1
  21   10   11 2
  22   10   12 2
  23   10   16 1
  24   13   14 2
  25   13   15 1
  26   15   29 1
  27   16   17 1
  28   16   18 1
  29   16   19 1

#	End of record

