#	Name: ASD04590770
#	Creating user name:	WinNT
#	Creation time:	15. 06. 2019 20:51

#	Modifying user name:	WinNT
#	Modification time:	15. 06. 2019 20:51

#	Program:	/corina/corina34_cracker 3.40 0067  02.08.2006

@<TRIPOS>MOLECULE
ASD04590770
  69   74    0    0    0
SMALL
NO_CHARGES


@<TRIPOS>ATOM
   1 N1            -2.3780    -2.7060     0.0323 N.ar    
   2 C2            -1.2115    -2.0738     0.0101 C.ar    
   3 N3            -0.0572    -2.7203    -0.0123 N.ar    
   4 C4            -0.0257    -4.0495    -0.0129 C.ar    
   5 C5            -1.2481    -4.7506     0.0109 C.ar    
   6 C6            -2.4366    -4.0275     0.0335 C.ar    
   7 N7             0.9997    -4.9652    -0.0324 N.pl3   
   8 C8             0.4949    -6.2556    -0.0222 C.ar    
   9 C9            -0.9093    -6.1797     0.0048 C.ar    
  10 C10            1.0901    -7.5101    -0.0326 C.ar    
  11 N11            0.3529    -8.6019    -0.0174 N.ar    
  12 C12           -0.9677    -8.5654     0.0081 C.ar    
  13 C13           -1.6447    -7.3642     0.0198 C.ar    
  14 C14            2.3613    -4.6399    -0.0594 C.ar    
  15 N15           -1.2019    -0.6888     0.0098 N.pl3   
  16 C16           -2.4016     0.0170    -0.0802 C.ar    
  17 C17           -2.3939     1.4025     0.0327 C.ar    
  18 C18           -3.5889     2.0932    -0.0580 C.ar    
  19 C19           -4.7614     1.3674    -0.2604 C.ar    
  20 C20           -4.6920    -0.0142    -0.3635 C.ar    
  21 N21           -3.5336    -0.6397    -0.2775 N.ar    
  22 N22           -5.9937     2.0244    -0.3579 N.3     
  23 C23           -7.0862     1.0654    -0.5694 C.3     
  24 C24           -8.4288     1.7999    -0.4896 C.3     
  25 C25           -7.2620     3.8575    -1.3718 C.3     
  26 C26           -5.9654     3.0420    -1.4169 C.3     
  27 C27            2.9415    -3.9838     1.0183 C.ar    
  28 C28            4.2849    -3.6648     0.9887 C.ar    
  29 C29            5.0521    -3.9979    -0.1125 C.ar    
  30 C30            4.4774    -4.6513    -1.1872 C.ar    
  31 C31            3.1356    -4.9778    -1.1616 C.ar    
  32 N32           -8.4006     2.9285    -1.4323 N.am    
  33 O33           -9.3485     4.1461    -3.1824 O.3     
  34 C34          -10.4503     4.2761    -4.1190 C.3     
  35 C35          -11.7610     4.4347    -3.3457 C.3     
  36 C36          -10.2270     5.5056    -5.0018 C.3     
  37 C37          -10.5241     3.0249    -4.9965 C.3     
  38 C38           -9.3922     3.1068    -2.3276 C.2     
  39 O39          -10.3256     2.3297    -2.3633 O.2     
  40 H40           -3.3893    -4.5358     0.0516 H       
  41 H41            2.1668    -7.5915    -0.0536 H       
  42 H42           -1.5252    -9.4902     0.0196 H       
  43 H43           -2.7243    -7.3413     0.0408 H       
  44 H44           -0.3608    -0.2096     0.0723 H       
  45 H45           -1.4663     1.9331     0.1896 H       
  46 H46           -3.6130     3.1697     0.0264 H       
  47 H47           -5.5960    -0.5839    -0.5203 H       
  48 H48           -6.9812     0.6053    -1.5519 H       
  49 H49           -7.0473     0.2942     0.1999 H       
  50 H50           -9.2357     1.1182    -0.7585 H       
  51 H51           -8.5826     2.1725     0.5231 H       
  52 H52           -7.3037     4.4279    -0.4439 H       
  53 H53           -7.2975     4.5362    -2.2240 H       
  54 H54           -5.1136     3.7043    -1.2623 H       
  55 H55           -5.8760     2.5543    -2.3876 H       
  56 H56            2.3428    -3.7231     1.8784 H       
  57 H57            4.7367    -3.1542     1.8264 H       
  58 H58            6.1024    -3.7470    -0.1334 H       
  59 H59            5.0792    -4.9101    -2.0458 H       
  60 H60            2.6874    -5.4884    -2.0011 H       
  61 H61          -11.7084     5.3260    -2.7206 H       
  62 H62          -12.5882     4.5322    -4.0489 H       
  63 H63          -11.9201     3.5587    -2.7169 H       
  64 H64           -9.2933     5.3926    -5.5527 H       
  65 H65          -11.0542     5.6032    -5.7049 H       
  66 H66          -10.1745     6.3970    -4.3766 H       
  67 H67          -10.6832     2.1489    -4.3676 H       
  68 H68          -11.3513     3.1224    -5.6996 H       
  69 H69           -9.5904     2.9119    -5.5474 H       
@<TRIPOS>BOND
   1    1    2 ar
   2    1    6 ar
   3    2    3 ar
   4    2   15 1
   5    3    4 ar
   6    4    5 ar
   7    4    7 1
   8    5    6 ar
   9    5    9 1
  10    6   40 1
  11    7    8 1
  12    7   14 1
  13    8    9 ar
  14    8   10 ar
  15    9   13 ar
  16   10   11 ar
  17   10   41 1
  18   11   12 ar
  19   12   13 ar
  20   12   42 1
  21   13   43 1
  22   14   27 ar
  23   14   31 ar
  24   15   16 1
  25   15   44 1
  26   16   17 ar
  27   16   21 ar
  28   17   18 ar
  29   17   45 1
  30   18   19 ar
  31   18   46 1
  32   19   20 ar
  33   19   22 1
  34   20   21 ar
  35   20   47 1
  36   22   23 1
  37   22   26 1
  38   23   24 1
  39   23   48 1
  40   23   49 1
  41   24   32 1
  42   24   50 1
  43   24   51 1
  44   25   26 1
  45   25   32 1
  46   25   52 1
  47   25   53 1
  48   26   54 1
  49   26   55 1
  50   27   28 ar
  51   27   56 1
  52   28   29 ar
  53   28   57 1
  54   29   30 ar
  55   29   58 1
  56   30   31 ar
  57   30   59 1
  58   31   60 1
  59   32   38 am
  60   33   34 1
  61   33   38 1
  62   34   35 1
  63   34   36 1
  64   34   37 1
  65   35   61 1
  66   35   62 1
  67   35   63 1
  68   36   64 1
  69   36   65 1
  70   36   66 1
  71   37   67 1
  72   37   68 1
  73   37   69 1
  74   38   39 2

#	End of record

