#	Name: ASD01910531
#	Creating user name:	WinNT
#	Creation time:	15. 06. 2019 19:56

#	Modifying user name:	WinNT
#	Modification time:	15. 06. 2019 19:56

#	Program:	/corina/corina34_cracker 3.40 0067  02.08.2006

@<TRIPOS>MOLECULE
ASD01910531
  44   47    0    0    0
SMALL
NO_CHARGES


@<TRIPOS>ATOM
   1 O1             0.1196     0.7034    -0.2243 O.3     
   2 C2             0.2625    -0.6324    -0.1918 C.2     
   3 N3             1.5650    -0.8718    -0.1460 N.2     
   4 C4             2.1519     0.3340    -0.1529 C.2     
   5 N5             1.2113     1.2313    -0.2012 N.2     
   6 C6            -0.8140    -1.6312    -0.2042 C.2     
   7 C7            -2.1555    -1.3702    -0.2518 C.2     
   8 C8            -2.8195    -2.6029    -0.2468 C.2     
   9 C9            -1.8816    -3.5774    -0.1970 C.2     
  10 N10           -0.6535    -2.9964    -0.1762 N.pl3   
  11 C11            3.9701     1.4291     1.1331 C.3     
  12 C12            3.6344     0.6015    -0.1115 C.3     
  13 C13            4.0482     1.3790    -1.3631 C.3     
  14 C14            5.5589     1.6226    -1.3380 C.3     
  15 C15            5.9165     2.4617    -0.1073 C.3     
  16 N16            5.3935     1.7908     1.0907 N.am    
  17 C17            6.2042     1.5121     2.1307 C.2     
  18 C18            5.6391     0.9551     3.3819 C.ar    
  19 O19            7.3985     1.7177     2.0422 O.2     
  20 C20           -4.3119    -2.8080    -0.2893 C.3     
  21 C21            6.3034    -0.0572     4.0819 C.ar    
  22 C22            5.7425    -0.5482     5.2443 C.ar    
  23 N23            4.5973    -0.0763     5.6962 N.ar    
  24 C24            3.9371     0.8783     5.0677 C.ar    
  25 C25            4.4309     1.4309     3.8979 C.ar    
  26 F26            2.7674     1.3255     5.5748 F       
  27 H27           -2.6171    -0.3944    -0.2864 H       
  28 H28           -2.0767    -4.6395    -0.1808 H       
  29 H29            0.1945    -3.4662    -0.1409 H       
  30 H30            3.3632     2.3344     1.1447 H       
  31 H31            3.7692     0.8405     2.0283 H       
  32 H32            4.1744    -0.3447    -0.0759 H       
  33 H33            3.7879     0.8030    -2.2511 H       
  34 H34            3.5264     2.3358    -1.3853 H       
  35 H35            6.0808     0.6668    -1.2909 H       
  36 H36            5.8564     2.1559    -2.2409 H       
  37 H37            6.9998     2.5546    -0.0305 H       
  38 H38            5.4683     3.4513    -0.1969 H       
  39 H39           -4.6395    -2.8790    -1.3265 H       
  40 H40           -4.5673    -3.7282     0.2361 H       
  41 H41           -4.8083    -1.9652     0.1917 H       
  42 H42            7.2416    -0.4495     3.7183 H       
  43 H43            6.2488    -1.3302     5.7907 H       
  44 H44            3.8866     2.2120     3.3880 H       
@<TRIPOS>BOND
   1    1    2 1
   2    1    5 1
   3    2    3 2
   4    2    6 1
   5    3    4 1
   6    4    5 2
   7    4   12 1
   8    6    7 2
   9    6   10 1
  10    7    8 1
  11    7   27 1
  12    8    9 2
  13    8   20 1
  14    9   10 1
  15    9   28 1
  16   10   29 1
  17   11   12 1
  18   11   16 1
  19   11   30 1
  20   11   31 1
  21   12   13 1
  22   12   32 1
  23   13   14 1
  24   13   33 1
  25   13   34 1
  26   14   15 1
  27   14   35 1
  28   14   36 1
  29   15   16 1
  30   15   37 1
  31   15   38 1
  32   16   17 am
  33   17   18 1
  34   17   19 2
  35   18   21 ar
  36   18   25 ar
  37   20   39 1
  38   20   40 1
  39   20   41 1
  40   21   22 ar
  41   21   42 1
  42   22   23 ar
  43   22   43 1
  44   23   24 ar
  45   24   25 ar
  46   24   26 1
  47   25   44 1

#	End of record

