#	Name: ASD01910625
#	Creating user name:	WinNT
#	Creation time:	15. 06. 2019 19:56

#	Modifying user name:	WinNT
#	Modification time:	15. 06. 2019 19:56

#	Program:	/corina/corina34_cracker 3.40 0067  02.08.2006

@<TRIPOS>MOLECULE
ASD01910625
  43   46    0    0    0
SMALL
NO_CHARGES


@<TRIPOS>ATOM
   1 C1            -0.6214     2.3065     0.1992 C.ar    
   2 C2            -0.7469     0.9276     0.2661 C.ar    
   3 C3             0.3826     0.1250     0.3084 C.ar    
   4 C4             1.6377     0.6950     0.2838 C.ar    
   5 C5             1.7698     2.0834     0.2160 C.ar    
   6 C6             0.6288     2.8870     0.1740 C.ar    
   7 C7             3.1122     2.6998     0.1893 C.2     
   8 N8             3.3868     3.9911     0.1267 N.2     
   9 C9             4.7263     4.0742     0.1261 C.2     
  10 N10            5.1961     2.8632     0.1868 N.2     
  11 O11            4.2901     2.0579     0.2298 O.3     
  12 C12            5.5390     5.3418     0.0656 C.3     
  13 C13            6.4186     5.4447     1.3138 C.3     
  14 C14            7.2200     6.7477     1.2691 C.3     
  15 C15            8.1291     6.7414     0.0361 C.3     
  16 N16            7.3066     6.4977    -1.1567 N.am    
  17 C17            6.4291     5.3195    -1.1810 C.3     
  18 C18            7.3561     7.3389    -2.2085 C.2     
  19 C19            6.6238     7.0130    -3.4508 C.ar    
  20 O20            8.0027     8.3656    -2.1357 O.2     
  21 F21           -1.9744     0.3639     0.2905 F       
  22 C22            6.6138     5.7048    -3.9482 C.ar    
  23 C23            5.9118     5.4521    -5.1164 C.ar    
  24 C24            5.2496     6.4928    -5.7469 C.ar    
  25 N25            5.2780     7.7159    -5.2528 N.ar    
  26 C26            5.9265     8.0035    -4.1438 C.ar    
  27 F27            5.8741     4.2049    -5.6345 F       
  28 H28           -1.5047     2.9270     0.1623 H       
  29 H29            0.2792    -0.9487     0.3612 H       
  30 H30            2.5170     0.0689     0.3172 H       
  31 H31            0.7255     3.9614     0.1212 H       
  32 H32            4.8699     6.2011     0.0202 H       
  33 H33            5.7889     5.4360     2.2035 H       
  34 H34            7.1040     4.5978     1.3458 H       
  35 H35            6.5355     7.5941     1.2121 H       
  36 H36            7.8287     6.8315     2.1695 H       
  37 H37            8.6281     7.7062    -0.0549 H       
  38 H38            8.8731     5.9508     0.1347 H       
  39 H39            7.0343     4.4130    -1.1817 H       
  40 H40            5.8063     5.3462    -2.0752 H       
  41 H41            7.1397     4.9130    -3.4354 H       
  42 H42            4.7018     6.3001    -6.6575 H       
  43 H43            5.9259     9.0173    -3.7714 H       
@<TRIPOS>BOND
   1    1    2 ar
   2    1    6 ar
   3    1   28 1
   4    2    3 ar
   5    2   21 1
   6    3    4 ar
   7    3   29 1
   8    4    5 ar
   9    4   30 1
  10    5    6 ar
  11    5    7 1
  12    6   31 1
  13    7    8 2
  14    7   11 1
  15    8    9 1
  16    9   10 2
  17    9   12 1
  18   10   11 1
  19   12   13 1
  20   12   17 1
  21   12   32 1
  22   13   14 1
  23   13   33 1
  24   13   34 1
  25   14   15 1
  26   14   35 1
  27   14   36 1
  28   15   16 1
  29   15   37 1
  30   15   38 1
  31   16   17 1
  32   16   18 am
  33   17   39 1
  34   17   40 1
  35   18   19 1
  36   18   20 2
  37   19   22 ar
  38   19   26 ar
  39   22   23 ar
  40   22   41 1
  41   23   24 ar
  42   23   27 1
  43   24   25 ar
  44   24   42 1
  45   25   26 ar
  46   26   43 1

#	End of record

