#	Name: ASD02030078
#	Creating user name:	WinNT
#	Creation time:	15. 06. 2019 20:14

#	Modifying user name:	WinNT
#	Modification time:	15. 06. 2019 20:14

#	Program:	/corina/corina34_cracker 3.40 0067  02.08.2006

@<TRIPOS>MOLECULE
ASD02030078
  59   62    0    0    0
SMALL
NO_CHARGES


@<TRIPOS>ATOM
   1 C1            -0.5748     0.3785    -1.1534 C.ar    
   2 C2             0.0026    -0.0037     0.0494 C.ar    
   3 C3            -0.6234     0.2824     1.2481 C.ar    
   4 C4            -1.8347     0.9538     1.2591 C.ar    
   5 C5            -2.4270     1.3447     0.0477 C.ar    
   6 C6            -1.7832     1.0559    -1.1618 C.ar    
   7 F7            -2.3436     1.4277    -2.3335 F       
   8 O8            -2.4476     1.2325     2.4375 O.3     
   9 C9            -3.7148     2.0585     0.0493 C.2     
  10 O10           -3.7376     3.2710     0.1358 O.2     
  11 C11           -4.9814     1.3000    -0.0543 C.ar    
  12 C12           -6.2042     1.9633     0.0656 C.ar    
  13 C13           -4.9537    -0.0780    -0.2778 C.ar    
  14 C14           -6.1328    -0.7840    -0.3752 C.ar    
  15 C15           -7.3555    -0.1215    -0.2499 C.ar    
  16 C16           -7.3833     1.2571    -0.0309 C.ar    
  17 C17           -8.6214    -0.8794    -0.3550 C.2     
  18 O18           -9.8009    -0.2403    -0.2342 O.3     
  19 O19           -8.5973    -2.0778    -0.5502 O.2     
  20 C20          -11.0026    -1.0473    -0.3481 C.3     
  21 C21          -12.1823    -0.3800     0.3954 C.3     
  22 N22          -11.9328     1.0540     0.5613 N.am    
  23 C23          -12.5236     1.7288     1.5674 C.2     
  24 O24          -13.2635     1.1474     2.3373 O.2     
  25 C25          -12.2723     3.1736     1.7345 C.ar    
  26 C26          -12.8838     3.8751     2.7770 C.ar    
  27 C27          -11.4177     3.8425     0.8543 C.ar    
  28 C28          -11.1854     5.1903     1.0138 C.ar    
  29 C29          -11.7997     5.8856     2.0489 C.ar    
  30 C30          -12.6464     5.2228     2.9298 C.ar    
  31 O31          -11.5683     7.2139     2.2028 O.3     
  32 C32          -11.4975    -1.0896    -1.8157 C.3     
  33 N33          -12.9461    -1.3874    -1.6775 N.3     
  34 C34          -13.4081    -0.6082    -0.5083 C.3     
  35 O35            0.0505     0.0921    -2.3272 O.3     
  36 C36            1.2963    -0.6031    -2.2458 C.3     
  37 H37            0.9467    -0.5282     0.0488 H       
  38 H38           -0.1666    -0.0190     2.1792 H       
  39 H39           -2.1407     2.0479     2.8572 H       
  40 H40           -6.2257     3.0298     0.2344 H       
  41 H41           -4.0079    -0.5904    -0.3747 H       
  42 H42           -6.1114    -1.8497    -0.5488 H       
  43 H43           -8.3291     1.7695     0.0664 H       
  44 H44          -10.8260    -2.0548     0.0286 H       
  45 H45          -12.3331    -0.8519     1.3663 H       
  46 H46          -11.3425     1.5179    -0.0529 H       
  47 H47          -13.5420     3.3609     3.4616 H       
  48 H48          -10.9397     3.3029     0.0500 H       
  49 H49          -10.5247     5.7079     0.3341 H       
  50 H50          -13.1219     5.7665     3.7327 H       
  51 H51          -12.1862     7.7794     1.7196 H       
  52 H52          -11.3476    -0.1248    -2.3002 H       
  53 H53          -10.9930    -1.8816    -2.3692 H       
  54 H54          -13.4506    -1.1232    -2.5103 H       
  55 H55          -14.1699    -1.1685     0.0338 H       
  56 H56          -13.8111     0.3499    -0.8364 H       
  57 H57            2.0076    -0.0084    -1.6726 H       
  58 H58            1.1450    -1.5633    -1.7527 H       
  59 H59            1.6867    -0.7679    -3.2501 H       
@<TRIPOS>BOND
   1    1    2 ar
   2    1   35 1
   3    1    6 ar
   4    2    3 ar
   5    2   37 1
   6    3    4 ar
   7    3   38 1
   8    4    5 ar
   9    4    8 1
  10    5    6 ar
  11    5    9 1
  12    6    7 1
  13    8   39 1
  14    9   10 2
  15    9   11 1
  16   11   12 ar
  17   11   13 ar
  18   12   16 ar
  19   12   40 1
  20   13   14 ar
  21   13   41 1
  22   14   15 ar
  23   14   42 1
  24   15   16 ar
  25   15   17 1
  26   16   43 1
  27   17   18 1
  28   17   19 2
  29   18   20 1
  30   20   32 1
  31   20   21 1
  32   20   44 1
  33   21   22 1
  34   21   34 1
  35   21   45 1
  36   22   23 am
  37   22   46 1
  38   23   24 2
  39   23   25 1
  40   25   26 ar
  41   25   27 ar
  42   26   30 ar
  43   26   47 1
  44   27   28 ar
  45   27   48 1
  46   28   29 ar
  47   28   49 1
  48   29   30 ar
  49   29   31 1
  50   30   50 1
  51   31   51 1
  52   32   33 1
  53   32   52 1
  54   32   53 1
  55   33   34 1
  56   33   54 1
  57   34   55 1
  58   34   56 1
  59   35   36 1
  60   36   57 1
  61   36   58 1
  62   36   59 1

#	End of record

