#	Name: ASD01880307
#	Creating user name:	WinNT
#	Creation time:	15. 06. 2019 19:40

#	Modifying user name:	WinNT
#	Modification time:	15. 06. 2019 19:40

#	Program:	/corina/corina34_cracker 3.40 0067  02.08.2006

@<TRIPOS>MOLECULE
ASD01880307
  51   53    0    0    0
SMALL
NO_CHARGES


@<TRIPOS>ATOM
   1 C1            -0.0164     1.3606     0.0095 C.2     
   2 C2             0.0021    -0.0041     0.0020 C.2     
   3 N3            -1.1566    -0.7092     0.0088 N.am    
   4 C4            -2.3471    -0.0814     0.0230 C.2     
   5 C5            -2.4079     1.3233     0.0311 C.2     
   6 C6            -1.2519     2.0432     0.0309 C.2     
   7 O7            -3.3783    -0.7343     0.0285 O.2     
   8 C8            -1.1117    -2.1735     0.0000 C.3     
   9 C9            -1.0830    -2.6837     1.4177 C.ar    
  10 C10           -2.2666    -2.9544     2.0787 C.ar    
  11 C11           -2.2410    -3.4223     3.3790 C.ar    
  12 C12           -1.0305    -3.6198     4.0190 C.ar    
  13 C13            0.1538    -3.3487     3.3570 C.ar    
  14 C14            0.1270    -2.8862     2.0549 C.ar    
  15 Cl15          -0.9975    -4.2070     5.6524 Cl      
  16 C16            1.2565     2.1233     0.0015 C.ar    
  17 C17            1.5826     2.9253    -1.0909 C.ar    
  18 C18            2.7659     3.6331    -1.0964 C.ar    
  19 C19            3.6332     3.5474    -0.0136 C.ar    
  20 C20            3.3099     2.7482     1.0767 C.ar    
  21 C21            2.1249     2.0432     1.0887 C.ar    
  22 N22            4.8314     4.2648    -0.0214 N.pl3   
  23 C23            5.7463     4.1751     1.1193 C.3     
  24 C24            6.9738     5.0505     0.8586 C.3     
  25 N25            7.8911     4.9606     2.0024 N.3     
  26 C26            8.4474     3.6067     2.1259 C.3     
  27 C27            8.9610     5.9619     1.8991 C.3     
  28 H28            0.9471    -0.5268    -0.0098 H       
  29 H29           -3.3632     1.8270     0.0422 H       
  30 H30           -1.2801     3.1229     0.0370 H       
  31 H31           -1.9949    -2.5611    -0.5078 H       
  32 H32           -0.2158    -2.5064    -0.5241 H       
  33 H33           -3.2116    -2.7998     1.5791 H       
  34 H34           -3.1658    -3.6334     3.8953 H       
  35 H35            1.0991    -3.5027     3.8562 H       
  36 H36            1.0514    -2.6745     1.5380 H       
  37 H37            0.9092     2.9919    -1.9325 H       
  38 H38            3.0192     4.2544    -1.9427 H       
  39 H39            3.9852     2.6830     1.9170 H       
  40 H40            1.8741     1.4224     1.9361 H       
  41 H41            5.0579     4.8224    -0.7821 H       
  42 H42            5.2387     4.5201     2.0201 H       
  43 H43            6.0601     3.1399     1.2528 H       
  44 H44            7.4813     4.7056    -0.0422 H       
  45 H45            6.6599     6.0858     0.7250 H       
  46 H46            8.9952     3.3547     1.2179 H       
  47 H47            9.1230     3.5680     2.9804 H       
  48 H48            7.6367     2.8927     2.2712 H       
  49 H49            8.5238     6.9602     1.8794 H       
  50 H50            9.6258     5.8733     2.7584 H       
  51 H51            9.5274     5.7952     0.9828 H       
@<TRIPOS>BOND
   1    1    2 2
   2    1   16 1
   3    1    6 1
   4    2    3 1
   5    2   28 1
   6    3    4 am
   7    3    8 1
   8    4    5 1
   9    4    7 2
  10    5    6 2
  11    5   29 1
  12    6   30 1
  13    8    9 1
  14    8   31 1
  15    8   32 1
  16    9   10 ar
  17    9   14 ar
  18   10   11 ar
  19   10   33 1
  20   11   12 ar
  21   11   34 1
  22   12   13 ar
  23   12   15 1
  24   13   14 ar
  25   13   35 1
  26   14   36 1
  27   16   17 ar
  28   16   21 ar
  29   17   18 ar
  30   17   37 1
  31   18   19 ar
  32   18   38 1
  33   19   20 ar
  34   19   22 1
  35   20   21 ar
  36   20   39 1
  37   21   40 1
  38   22   23 1
  39   22   41 1
  40   23   24 1
  41   23   42 1
  42   23   43 1
  43   24   25 1
  44   24   44 1
  45   24   45 1
  46   25   26 1
  47   25   27 1
  48   26   46 1
  49   26   47 1
  50   26   48 1
  51   27   49 1
  52   27   50 1
  53   27   51 1

#	End of record

