#	Name: ASD04590258
#	Creating user name:	WinNT
#	Creation time:	15. 06. 2019 20:50

#	Modifying user name:	WinNT
#	Modification time:	15. 06. 2019 20:50

#	Program:	/corina/corina34_cracker 3.40 0067  02.08.2006

@<TRIPOS>MOLECULE
ASD04590258
  51   54    0    0    0
SMALL
NO_CHARGES


@<TRIPOS>ATOM
   1 O1            -0.0160     1.3308     0.0094 O.3     
   2 C2             0.0021    -0.0041     0.0020 C.2     
   3 C3             1.3225    -0.3771    -0.0126 C.2     
   4 C4             2.0303     0.9203    -0.0124 C.2     
   5 N5             1.0847     1.8249     0.0015 N.2     
   6 C6            -1.1935    -0.9215     0.0093 C.3     
   7 C7             3.4960     1.1480    -0.0247 C.ar    
   8 C8             4.0292     2.2346    -0.7155 C.ar    
   9 C9             5.3936     2.4419    -0.7231 C.ar    
  10 C10            6.2316     1.5732    -0.0474 C.ar    
  11 C11            5.7079     0.4927     0.6395 C.ar    
  12 C12            4.3445     0.2793     0.6592 C.ar    
  13 C13            1.8932    -1.7347    -0.0249 C.2     
  14 O14            2.1191    -2.2898    -1.0834 O.2     
  15 N15            2.1651    -2.3619     1.1366 N.am    
  16 C16            2.7088    -3.6552     1.1248 C.2     
  17 C17            3.0524    -4.4536     2.2464 C.2     
  18 N18            3.5274    -5.5923     1.7797 N.2     
  19 N19            3.5154    -5.5862     0.4953 N.pl3   
  20 C20            3.0125    -4.4113     0.0364 C.2     
  21 C21            2.9065    -4.0805     3.6660 C.2     
  22 N22            3.2767    -4.9450     4.6314 N.am    
  23 C23            3.1318    -4.5744     6.0414 C.3     
  24 C24            3.0084    -5.8408     6.8932 C.3     
  25 C25            2.9186    -5.4496     8.3700 C.3     
  26 N26            4.1198    -4.6963     8.7520 N.3     
  27 C27            4.2343    -3.4523     7.9802 C.3     
  28 C28            4.3633    -3.7838     6.4918 C.3     
  29 O29            2.4523    -2.9930     3.9652 O.2     
  30 H30           -2.1073    -0.3274     0.0213 H       
  31 H31           -1.1777    -1.5459    -0.8841 H       
  32 H32           -1.1601    -1.5548     0.8958 H       
  33 H33            3.3760     2.9131    -1.2440 H       
  34 H34            5.8080     3.2836    -1.2581 H       
  35 H35            7.2987     1.7389    -0.0563 H       
  36 H36            6.3668    -0.1828     1.1648 H       
  37 H37            3.9367    -0.5646     1.1957 H       
  38 H38            1.9849    -1.9192     1.9806 H       
  39 H39            3.8188    -6.3169    -0.0659 H       
  40 H40            2.8843    -4.1283    -0.9979 H       
  41 H41            3.6391    -5.8125     4.3927 H       
  42 H42            2.2388    -3.9623     6.1672 H       
  43 H43            2.1095    -6.3864     6.6059 H       
  44 H44            3.8833    -6.4716     6.7364 H       
  45 H45            2.0358    -4.8302     8.5286 H       
  46 H46            2.8450    -6.3497     8.9803 H       
  47 H47            4.1290    -4.5089     9.7434 H       
  48 H48            3.3453    -2.8423     8.1407 H       
  49 H49            5.1162    -2.9017     8.3075 H       
  50 H50            5.2596    -4.3823     6.3287 H       
  51 H51            4.4325    -2.8598     5.9178 H       
@<TRIPOS>BOND
   1    1    2 1
   2    1    5 1
   3    2    3 2
   4    2    6 1
   5    3    4 1
   6    3   13 1
   7    4    5 2
   8    4    7 1
   9    6   30 1
  10    6   31 1
  11    6   32 1
  12    7    8 ar
  13    7   12 ar
  14    8    9 ar
  15    8   33 1
  16    9   10 ar
  17    9   34 1
  18   10   11 ar
  19   10   35 1
  20   11   12 ar
  21   11   36 1
  22   12   37 1
  23   13   14 2
  24   13   15 am
  25   15   16 1
  26   15   38 1
  27   16   17 1
  28   16   20 2
  29   17   18 2
  30   17   21 1
  31   18   19 1
  32   19   20 1
  33   19   39 1
  34   20   40 1
  35   21   22 am
  36   21   29 2
  37   22   23 1
  38   22   41 1
  39   23   24 1
  40   23   28 1
  41   23   42 1
  42   24   25 1
  43   24   43 1
  44   24   44 1
  45   25   26 1
  46   25   45 1
  47   25   46 1
  48   26   27 1
  49   26   47 1
  50   27   28 1
  51   27   48 1
  52   27   49 1
  53   28   50 1
  54   28   51 1

#	End of record

