#	Name: ASD05872039
#	Creating user name:	WinNT
#	Creation time:	15. 06. 2019 21:04

#	Modifying user name:	WinNT
#	Modification time:	15. 06. 2019 21:04

#	Program:	/corina/corina34_cracker 3.40 0067  02.08.2006

@<TRIPOS>MOLECULE
ASD05872039
  62   66    0    0    0
SMALL
NO_CHARGES


@<TRIPOS>ATOM
   1 C1             1.3700    -0.5679     0.4310 C.ar    
   2 C2             0.2141    -0.1042    -0.1801 C.ar    
   3 C3             0.2349     1.0858    -0.8928 C.ar    
   4 C4             1.4065     1.8094    -0.9949 C.ar    
   5 C5             2.5640     1.3459    -0.3835 C.ar    
   6 C6             2.5422     0.1548     0.3301 C.ar    
   7 N7             3.7526     2.0790    -0.4869 N.am    
   8 C8             3.7156     3.4262    -0.4870 C.2     
   9 C9             4.9751     4.2002    -0.4930 C.ar    
  10 O10            2.6465     4.0050    -0.4822 O.2     
  11 C11            4.9396     5.5945    -0.4930 C.ar    
  12 C12            6.1245     6.3133    -0.4982 C.ar    
  13 C13            7.3425     5.6451    -0.5032 C.ar    
  14 C14            7.3782     4.2630    -0.5036 C.ar    
  15 C15            6.2043     3.5380    -0.4927 C.ar    
  16 N16            6.0941     7.7147    -0.4987 N.am    
  17 C17            7.1865     8.4994    -0.5035 C.2     
  18 C18            6.7526     9.9125    -0.5030 C.ar    
  19 C19            5.3427     9.8834    -0.4976 C.ar    
  20 C20            4.9685     8.4512    -0.5004 C.2     
  21 O21            8.3374     8.1116    -0.5072 O.2     
  22 O22            3.8355     8.0144    -0.4977 O.2     
  23 C23            7.4188    11.1258    -0.5065 C.ar    
  24 C24            6.6860    12.3163    -0.5047 C.ar    
  25 C25            5.2917    12.2808    -0.4994 C.ar    
  26 C26            4.6237    11.0683    -0.4959 C.ar    
  27 C27            7.3913    13.6172    -0.5079 C.2     
  28 O28            8.6063    13.6498    -0.5122 O.2     
  29 N29            6.6863    14.7659    -0.5062 N.am    
  30 C30            7.3499    15.9943    -0.4013 C.ar    
  31 C31            6.8446    17.1144    -1.0484 C.ar    
  32 C32            8.5106    16.0946     0.3545 C.ar    
  33 C33            9.1642    17.3065     0.4579 C.ar    
  34 C34            8.6616    18.4238    -0.1931 C.ar    
  35 C35            7.4993    18.3256    -0.9440 C.ar    
  36 O36            9.3056    19.6169    -0.0905 O.3     
  37 S37           10.3573    19.8473    -1.1663 S.o2    
  38 O38           11.1799    20.9598    -0.7172 O.co2   
  39 O39           11.1206    18.6140    -1.2776 O.co2   
  40 O40            9.6409    20.1586    -2.3934 O.co2   
  41 O41           -0.9398    -0.8167    -0.0807 O.3     
  42 S42           -1.7964    -0.4433     1.1207 S.o2    
  43 O43           -2.7748    -1.5072     1.2850 O.co2   
  44 O44           -0.8991    -0.3458     2.2615 O.co2   
  45 O45           -2.4234     0.8316     0.8087 O.co2   
  46 H46            1.3519    -1.4921     0.9895 H       
  47 H47           -0.6654     1.4461    -1.3682 H       
  48 H48            1.4227     2.7355    -1.5504 H       
  49 H49            3.4419    -0.2061     0.8062 H       
  50 H50            4.6026     1.6171    -0.5586 H       
  51 H51            3.9918     6.1124    -0.4895 H       
  52 H52            8.2647     6.2073    -0.5072 H       
  53 H53            8.3281     3.7491    -0.5082 H       
  54 H54            6.2362     2.4584    -0.4927 H       
  55 H55            8.4985    11.1526    -0.5103 H       
  56 H56            4.7305    13.2036    -0.4980 H       
  57 H57            3.5439    11.0457    -0.4917 H       
  58 H58            5.7193    14.7416    -0.5776 H       
  59 H59            5.9399    17.0380    -1.6333 H       
  60 H60            8.9018    15.2250     0.8617 H       
  61 H61           10.0667    17.3848     1.0460 H       
  62 H62            7.1087    19.1958    -1.4505 H       
@<TRIPOS>BOND
   1    1    2 ar
   2    1    6 ar
   3    1   46 1
   4    2    3 ar
   5    2   41 1
   6    3    4 ar
   7    3   47 1
   8    4    5 ar
   9    4   48 1
  10    5    6 ar
  11    5    7 1
  12    6   49 1
  13    7    8 am
  14    7   50 1
  15    8    9 1
  16    8   10 2
  17    9   11 ar
  18    9   15 ar
  19   11   12 ar
  20   11   51 1
  21   12   13 ar
  22   12   16 1
  23   13   14 ar
  24   13   52 1
  25   14   15 ar
  26   14   53 1
  27   15   54 1
  28   16   17 am
  29   16   20 am
  30   17   18 1
  31   17   21 2
  32   18   19 ar
  33   18   23 ar
  34   19   20 1
  35   19   26 ar
  36   20   22 2
  37   23   24 ar
  38   23   55 1
  39   24   25 ar
  40   24   27 1
  41   25   26 ar
  42   25   56 1
  43   26   57 1
  44   27   28 2
  45   27   29 am
  46   29   30 1
  47   29   58 1
  48   30   31 ar
  49   30   32 ar
  50   31   35 ar
  51   31   59 1
  52   32   33 ar
  53   32   60 1
  54   33   34 ar
  55   33   61 1
  56   34   35 ar
  57   34   36 1
  58   35   62 1
  59   36   37 1
  60   37   38 ar
  61   37   39 ar
  62   37   40 ar
  63   41   42 1
  64   42   43 ar
  65   42   44 ar
  66   42   45 ar

#	End of record

