#	Name: ASD01680153
#	Creating user name:	WinNT
#	Creation time:	15. 06. 2019 19:22

#	Modifying user name:	WinNT
#	Modification time:	15. 06. 2019 19:22

#	Program:	/corina/corina34_cracker 3.40 0067  02.08.2006

@<TRIPOS>MOLECULE
ASD01680153
  83   86    0    0    0
SMALL
NO_CHARGES


@<TRIPOS>ATOM
   1 N1             0.0443     1.4003     0.1639 N.am    
   2 C2             0.0202    -0.0651     0.0040 C.3     
   3 C3             1.4291    -0.5353     0.4437 C.3     
   4 C4             2.3236     0.6096    -0.1008 C.3     
   5 C5             1.4389     1.8597     0.0895 C.3     
   6 C6            -1.0340     2.1887     0.3429 C.2     
   7 O7            -2.1506     1.7126     0.2882 O.2     
   8 O8            -0.8739     3.5040     0.5822 O.3     
   9 C9            -1.0521    -0.6815     0.9047 C.3     
  10 N10           -0.8422    -0.2404     2.2859 N.pl3   
  11 C11           -1.7546    -0.5918     3.2739 C.ar    
  12 C12           -2.8650    -1.3628     2.9444 C.ar    
  13 C13           -3.7646    -1.7052     3.9374 C.ar    
  14 C14           -3.5230    -1.2636     5.2317 C.ar    
  15 C15           -2.4009    -0.5017     5.4877 C.ar    
  16 N16           -1.5563    -0.1946     4.5212 N.ar    
  17 O17            3.5255     0.7196     0.6643 O.3     
  18 C18            4.6461     1.2020    -0.0798 C.3     
  19 C19            5.8521     1.2778     0.8208 C.2     
  20 N20            7.0319     1.7088     0.3322 N.am    
  21 O21            5.7609     0.9509     1.9851 O.2     
  22 C22            8.2042     1.7825     1.2076 C.3     
  23 C23            9.4040     2.2989     0.4109 C.3     
  24 N24            9.0607     3.5785    -0.2145 N.am    
  25 C25            9.7077     3.9801    -1.3265 C.2     
  26 C26            9.3626     5.2661    -1.9550 C.ar    
  27 C27            8.3668     5.3256    -2.9409 C.ar    
  28 C28            8.0501     6.5410    -3.5258 C.ar    
  29 C29            8.7116     7.6922    -3.1409 C.ar    
  30 C30            9.6951     7.6448    -2.1705 C.ar    
  31 C31           10.0233     6.4412    -1.5680 C.ar    
  32 O32           10.5766     3.2803    -1.8107 O.2     
  33 O33           10.9842     6.3984    -0.6114 O.3     
  34 C34           11.6139     7.6345    -0.2687 C.3     
  35 O35            7.7165     4.1973    -3.3206 O.3     
  36 C36            6.7145     4.3346    -4.3302 C.3     
  37 C37           10.5770     2.4913     1.3373 C.2     
  38 O38           11.0750     3.5851     1.4624 O.2     
  39 O39           11.0684     1.4477     2.0236 O.3     
  40 C40           -2.0796     4.2922     0.7649 C.3     
  41 C41           -1.7060     5.7297     1.0205 C.ar    
  42 C42           -1.5702     6.6073    -0.0389 C.ar    
  43 C43           -1.2275     7.9258     0.1955 C.ar    
  44 C44           -1.0210     8.3668     1.4893 C.ar    
  45 C45           -1.1577     7.4894     2.5487 C.ar    
  46 C46           -1.5046     6.1719     2.3146 C.ar    
  47 H47           -0.1602    -0.3301    -1.0378 H       
  48 H48            1.4976    -0.6018     1.5295 H       
  49 H49            1.6863    -1.4869    -0.0214 H       
  50 H50            2.5496     0.4540    -1.1557 H       
  51 H51            1.5624     2.5337    -0.7582 H       
  52 H52            1.7111     2.3693     1.0138 H       
  53 H53           -2.0379    -0.3618     0.5670 H       
  54 H54           -0.9863    -1.7684     0.8564 H       
  55 H55           -0.0666     0.2970     2.5108 H       
  56 H56           -3.0223    -1.6890     1.9269 H       
  57 H57           -4.6357    -2.3023     3.7113 H       
  58 H58           -4.2064    -1.5134     6.0298 H       
  59 H59           -2.2091    -0.1562     6.4929 H       
  60 H60            4.8524     0.5229    -0.9070 H       
  61 H61            4.4222     2.1943    -0.4715 H       
  62 H62            7.1048     1.9703    -0.5990 H       
  63 H63            7.9979     2.4616     2.0349 H       
  64 H64            8.4281     0.7902     1.5993 H       
  65 H65            9.6658     1.5757    -0.3614 H       
  66 H66            8.3677     4.1366     0.1718 H       
  67 H67            7.2839     6.5891    -4.2854 H       
  68 H68            8.4585     8.6355    -3.6020 H       
  69 H69           10.2062     8.5501    -1.8777 H       
  70 H70           12.3603     7.4595     0.5062 H       
  71 H71           12.0978     8.0527    -1.1513 H       
  72 H72           10.8641     8.3342     0.1005 H       
  73 H73            5.9388     5.0166    -3.9818 H       
  74 H74            7.1664     4.7322    -5.2390 H       
  75 H75            6.2739     3.3599    -4.5398 H       
  76 H76           11.8214     1.6201     2.6053 H       
  77 H77           -2.6936     4.2306    -0.1335 H       
  78 H78           -2.6407     3.9059     1.6158 H       
  79 H79           -1.7315     6.2628    -1.0496 H       
  80 H80           -1.1207     8.6114    -0.6322 H       
  81 H81           -0.7525     9.3968     1.6723 H       
  82 H82           -0.9960     7.8338     3.5594 H       
  83 H83           -1.6150     5.4873     3.1425 H       
@<TRIPOS>BOND
   1    1    2 1
   2    1    5 1
   3    1    6 am
   4    2    3 1
   5    2    9 1
   6    2   47 1
   7    3    4 1
   8    3   48 1
   9    3   49 1
  10    4    5 1
  11    4   17 1
  12    4   50 1
  13    5   51 1
  14    5   52 1
  15    6    7 2
  16    6    8 1
  17    8   40 1
  18    9   10 1
  19    9   53 1
  20    9   54 1
  21   10   11 1
  22   10   55 1
  23   11   12 ar
  24   11   16 ar
  25   12   13 ar
  26   12   56 1
  27   13   14 ar
  28   13   57 1
  29   14   15 ar
  30   14   58 1
  31   15   16 ar
  32   15   59 1
  33   17   18 1
  34   18   19 1
  35   18   60 1
  36   18   61 1
  37   19   20 am
  38   19   21 2
  39   20   22 1
  40   20   62 1
  41   22   23 1
  42   22   63 1
  43   22   64 1
  44   23   24 1
  45   23   37 1
  46   23   65 1
  47   24   25 am
  48   24   66 1
  49   25   26 1
  50   25   32 2
  51   26   27 ar
  52   26   31 ar
  53   27   28 ar
  54   27   35 1
  55   28   29 ar
  56   28   67 1
  57   29   30 ar
  58   29   68 1
  59   30   31 ar
  60   30   69 1
  61   31   33 1
  62   33   34 1
  63   34   70 1
  64   34   71 1
  65   34   72 1
  66   35   36 1
  67   36   73 1
  68   36   74 1
  69   36   75 1
  70   37   38 2
  71   37   39 1
  72   39   76 1
  73   40   41 1
  74   40   77 1
  75   40   78 1
  76   41   42 ar
  77   41   46 ar
  78   42   43 ar
  79   42   79 1
  80   43   44 ar
  81   43   80 1
  82   44   45 ar
  83   44   81 1
  84   45   46 ar
  85   45   82 1
  86   46   83 1

#	End of record

