#	Name: ASD02038113
#	Creating user name:	WinNT
#	Creation time:	15. 06. 2019 20:16

#	Modifying user name:	WinNT
#	Modification time:	15. 06. 2019 20:16

#	Program:	/corina/corina34_cracker 3.40 0067  02.08.2006

@<TRIPOS>MOLECULE
ASD02038113
  48   50    0    0    0
SMALL
NO_CHARGES


@<TRIPOS>ATOM
   1 C1            -0.1689     1.1579     0.1083 C.ar    
   2 C2            -0.0901    -0.2188    -0.0056 C.ar    
   3 C3             0.9860     1.9145     0.1992 C.ar    
   4 C4             2.2212     1.2972     0.1760 C.ar    
   5 C5             2.3034    -0.0846     0.0618 C.ar    
   6 C6             1.1423    -0.8416    -0.0288 C.ar    
   7 N7             3.5517    -0.7119     0.0376 N.3     
   8 C8             6.8919    -3.1224     0.9752 C.3     
   9 C9             6.7042    -4.6364     1.0909 C.3     
  10 C10            8.0597    -5.3309     0.9459 C.3     
  11 O11            6.1420    -4.9505     2.3666 O.3     
  12 O12            7.8707    -6.7474     0.9373 O.3     
  13 C13            8.9842    -7.5181     0.8143 C.ar    
  14 C14            8.8726    -8.9005     0.7988 C.ar    
  15 C15           10.0038    -9.6833     0.6740 C.ar    
  16 C16           11.2512    -9.0870     0.5637 C.ar    
  17 C17           11.3627    -7.7046     0.5783 C.ar    
  18 C18           10.2311    -6.9217     0.6988 C.ar    
  19 Br19          -1.8580     2.0076     0.1318 Br      
  20 O20           12.3648    -9.8577     0.4417 O.3     
  21 C21            3.4065    -2.1689    -0.0882 C.3     
  22 C22            4.7925    -2.8099    -0.1909 C.3     
  23 N23            5.5795    -2.4629     1.0006 N.3     
  24 C24            5.7246    -1.0059     1.1263 C.3     
  25 C25            4.3387    -0.3648     1.2291 C.3     
  26 H26           -0.9932    -0.8068    -0.0759 H       
  27 H27            0.9214     2.9889     0.2880 H       
  28 H28            3.1223     1.8884     0.2463 H       
  29 H29            1.2032    -1.9163    -0.1174 H       
  30 H30            7.4939    -2.7660     1.8111 H       
  31 H31            7.3975    -2.8895     0.0380 H       
  32 H32            6.0335    -4.9806     0.3036 H       
  33 H33            8.5286    -5.0213     0.0119 H       
  34 H34            8.7007    -5.0550     1.7832 H       
  35 H35            6.6866    -4.6725     3.1156 H       
  36 H36            7.9013    -9.3648     0.8847 H       
  37 H37            9.9169   -10.7598     0.6626 H       
  38 H38           12.3340    -7.2403     0.4924 H       
  39 H39           10.3179    -5.8452     0.7101 H       
  40 H40           12.6016   -10.0648    -0.4727 H       
  41 H41            2.8892    -2.5598     0.7880 H       
  42 H42            2.8311    -2.4010    -0.9843 H       
  43 H43            4.6884    -3.8931    -0.2552 H       
  44 H44            5.2993    -2.4396    -1.0821 H       
  45 H45            6.3000    -0.7737     2.0225 H       
  46 H46            6.2420    -0.6150     0.2502 H       
  47 H47            4.4428     0.7183     1.2933 H       
  48 H48            3.8319    -0.7352     2.1202 H       
@<TRIPOS>BOND
   1    1    2 ar
   2    1    3 ar
   3    1   19 1
   4    2    6 ar
   5    2   26 1
   6    3    4 ar
   7    3   27 1
   8    4    5 ar
   9    4   28 1
  10    5    6 ar
  11    5    7 1
  12    6   29 1
  13    7   21 1
  14    7   25 1
  15    8    9 1
  16    8   23 1
  17    8   30 1
  18    8   31 1
  19    9   11 1
  20    9   10 1
  21    9   32 1
  22   10   12 1
  23   10   33 1
  24   10   34 1
  25   11   35 1
  26   12   13 1
  27   13   14 ar
  28   13   18 ar
  29   14   15 ar
  30   14   36 1
  31   15   16 ar
  32   15   37 1
  33   16   17 ar
  34   16   20 1
  35   17   18 ar
  36   17   38 1
  37   18   39 1
  38   20   40 1
  39   21   22 1
  40   21   41 1
  41   21   42 1
  42   22   23 1
  43   22   43 1
  44   22   44 1
  45   23   24 1
  46   24   25 1
  47   24   45 1
  48   24   46 1
  49   25   47 1
  50   25   48 1

#	End of record

