#	Name: ASD01209362
#	Creating user name:	WinNT
#	Creation time:	15. 06. 2019 19:11

#	Modifying user name:	WinNT
#	Modification time:	15. 06. 2019 19:11

#	Program:	/corina/corina34_cracker 3.40 0067  02.08.2006

@<TRIPOS>MOLECULE
ASD01209362
  45   46    0    0    0
SMALL
NO_CHARGES


@<TRIPOS>ATOM
   1 C1             1.1596     1.6602    -1.2786 C.2     
   2 C2             0.8950     0.1803    -1.1730 C.3     
   3 O3             1.9483     2.1878    -0.5306 O.2     
   4 O4             0.5231     2.3911    -2.2072 O.3     
   5 S5             1.9047    -0.5208     0.1611 S.3     
   6 N6             2.6315    -3.0592    -0.3993 N.am    
   7 C7             1.4887    -2.2855     0.1033 C.3     
   8 C8             1.2210    -2.8037     1.4972 C.2     
   9 C9             2.1162    -3.7567     1.7365 C.2     
  10 C10            2.9907    -3.9207     0.5708 C.2     
  11 O11            3.9057    -4.7180     0.4920 O.2     
  12 C12            2.2169    -4.5500     3.0138 C.3     
  13 C13            0.1435    -2.3296     2.4381 C.3     
  14 C14            3.2603    -2.9230    -1.7155 C.3     
  15 C15            4.3666    -1.9024    -1.6405 C.ar    
  16 C16            5.6047    -2.2586    -1.1241 C.ar    
  17 C17            6.6219    -1.3195    -1.0554 C.ar    
  18 C18            6.3996    -0.0261    -1.5030 C.ar    
  19 C19            5.1602     0.3250    -2.0184 C.ar    
  20 C20            4.1494    -0.6146    -2.0911 C.ar    
  21 O21            7.3948     0.8969    -1.4366 O.3     
  22 C22            7.0953     2.2095    -1.9156 C.3     
  23 O23            5.8194    -3.5269    -0.6858 O.3     
  24 C24            7.1174    -3.8230    -0.1668 C.3     
  25 H25           -0.1601     0.0144    -0.9557 H       
  26 H26            1.1522    -0.3029    -2.1156 H       
  27 H27            0.7255     3.3363    -2.2365 H       
  28 H28            0.6177    -2.4454    -0.5322 H       
  29 H29            1.5969    -5.4431     2.9367 H       
  30 H30            3.2541    -4.8409     3.1800 H       
  31 H31            1.8725    -3.9396     3.8487 H       
  32 H32           -0.7571    -2.9251     2.2888 H       
  33 H33            0.4855    -2.4397     3.4672 H       
  34 H34           -0.0772    -1.2809     2.2389 H       
  35 H35            3.6728    -3.8841    -2.0224 H       
  36 H36            2.5154    -2.5986    -2.4422 H       
  37 H37            7.5859    -1.5947    -0.6536 H       
  38 H38            4.9866     1.3323    -2.3672 H       
  39 H39            3.1867    -0.3406    -2.4967 H       
  40 H40            6.8142     2.1571    -2.9674 H       
  41 H41            6.2696     2.6269    -1.3392 H       
  42 H42            7.9735     2.8457    -1.8054 H       
  43 H43            7.8661    -3.6496    -0.9398 H       
  44 H44            7.3223    -3.1790     0.6884 H       
  45 H45            7.1540    -4.8662     0.1470 H       
@<TRIPOS>BOND
   1    1    2 1
   2    1    3 2
   3    1    4 1
   4    2    5 1
   5    2   25 1
   6    2   26 1
   7    4   27 1
   8    5    7 1
   9    6    7 1
  10    6   10 am
  11    6   14 1
  12    7    8 1
  13    7   28 1
  14    8    9 2
  15    8   13 1
  16    9   10 1
  17    9   12 1
  18   10   11 2
  19   12   29 1
  20   12   30 1
  21   12   31 1
  22   13   32 1
  23   13   33 1
  24   13   34 1
  25   14   15 1
  26   14   35 1
  27   14   36 1
  28   15   16 ar
  29   15   20 ar
  30   16   17 ar
  31   16   23 1
  32   17   18 ar
  33   17   37 1
  34   18   19 ar
  35   18   21 1
  36   19   20 ar
  37   19   38 1
  38   20   39 1
  39   21   22 1
  40   22   40 1
  41   22   41 1
  42   22   42 1
  43   23   24 1
  44   24   43 1
  45   24   44 1
  46   24   45 1

#	End of record

