#	Name: ASD03240432
#	Creating user name:	WinNT
#	Creation time:	15. 06. 2019 20:34

#	Modifying user name:	WinNT
#	Modification time:	15. 06. 2019 20:34

#	Program:	/corina/corina34_cracker 3.40 0067  02.08.2006

@<TRIPOS>MOLECULE
ASD03240432
  45   48    0    0    0
SMALL
NO_CHARGES


@<TRIPOS>ATOM
   1 C1            -0.0651     1.4705    -0.0590 C.ar    
   2 C2            -0.3954     0.5097     0.8802 C.ar    
   3 C3             2.5119     0.3878    -1.2826 C.ar    
   4 C4             2.1173     1.7089    -1.1725 C.ar    
   5 C5             1.2801     2.1471     0.0014 C.3     
   6 C6             3.2788    -0.0188    -2.3558 C.ar    
   7 C7             3.6552     0.9039    -3.3290 C.ar    
   8 C8             3.2555     2.2333    -3.2131 C.ar    
   9 C9             2.4887     2.6293    -2.1359 C.ar    
  10 C10            4.4805     0.4723    -4.4854 C.2     
  11 C11           -1.6249    -0.1140     0.8307 C.ar    
  12 C12           -2.5369     0.2265    -0.1703 C.ar    
  13 C13           -2.1970     1.1970    -1.1149 C.ar    
  14 C14           -0.9621     1.8089    -1.0567 C.ar    
  15 C15            1.0914     3.6660    -0.0433 C.3     
  16 C16            0.2924     4.1122     1.1833 C.3     
  17 N17            1.0112     3.7260     2.4042 N.3     
  18 C18            1.1627     2.2680     2.4925 C.3     
  19 C19            1.9869     1.7653     1.3049 C.3     
  20 C20            4.9176     1.2664    -5.5050 C.2     
  21 N21            5.6325     0.4929    -6.3468 N.pl3   
  22 N22            5.6413    -0.8125    -5.8406 N.2     
  23 C23            4.9595    -0.8302    -4.7259 C.2     
  24 C24           -3.8148    -0.4172    -0.2282 C.1     
  25 N25           -4.8285    -0.9277    -0.2741 N.1     
  26 H26            0.3111     0.2471     1.6537 H       
  27 H27            2.2232    -0.3259    -0.5251 H       
  28 H28            3.5866    -1.0506    -2.4406 H       
  29 H29            3.5447     2.9527    -3.9649 H       
  30 H30            2.1779     3.6597    -2.0452 H       
  31 H31           -1.8812    -0.8641     1.5642 H       
  32 H32           -2.8976     1.4648    -1.8920 H       
  33 H33           -0.6979     2.5598    -1.7866 H       
  34 H34            2.0660     4.1541    -0.0401 H       
  35 H35            0.5501     3.9390    -0.9492 H       
  36 H36            0.1686     5.1949     1.1619 H       
  37 H37           -0.6873     3.6345     1.1721 H       
  38 H38            1.9074     4.1865     2.4572 H       
  39 H39            1.6710     2.0113     3.4219 H       
  40 H40            0.1790     1.7989     2.4751 H       
  41 H41            2.0854     0.6814     1.3631 H       
  42 H42            2.9759     2.2230     1.3285 H       
  43 H43            4.7257     2.3232    -5.6176 H       
  44 H44            6.0657     0.7895    -7.1624 H       
  45 H45            4.7873    -1.6945    -4.1016 H       
@<TRIPOS>BOND
   1    1    2 ar
   2    1    5 1
   3    1   14 ar
   4    2   11 ar
   5    2   26 1
   6    3    4 ar
   7    3    6 ar
   8    3   27 1
   9    4    5 1
  10    4    9 ar
  11    5   15 1
  12    5   19 1
  13    6    7 ar
  14    6   28 1
  15    7    8 ar
  16    7   10 1
  17    8    9 ar
  18    8   29 1
  19    9   30 1
  20   10   20 2
  21   10   23 1
  22   11   12 ar
  23   11   31 1
  24   12   13 ar
  25   12   24 1
  26   13   14 ar
  27   13   32 1
  28   14   33 1
  29   15   16 1
  30   15   34 1
  31   15   35 1
  32   16   17 1
  33   16   36 1
  34   16   37 1
  35   17   18 1
  36   17   38 1
  37   18   19 1
  38   18   39 1
  39   18   40 1
  40   19   41 1
  41   19   42 1
  42   20   21 1
  43   20   43 1
  44   21   22 1
  45   21   44 1
  46   22   23 2
  47   23   45 1
  48   24   25 3

#	End of record

