#	Name: ASD02470007
#	Creating user name:	WinNT
#	Creation time:	15. 06. 2019 20:22

#	Modifying user name:	WinNT
#	Modification time:	15. 06. 2019 20:22

#	Program:	/corina/corina34_cracker 3.40 0067  02.08.2006

@<TRIPOS>MOLECULE
ASD02470007
  13   12    0    0    0
SMALL
NO_CHARGES


@<TRIPOS>ATOM
   1 C1            -0.0184     1.5028     0.0103 C.2     
   2 C2             0.0021    -0.0041     0.0020 C.3     
   3 C3            -0.7002    -0.5305     1.2552 C.3     
   4 C4            -0.7241    -0.5171    -1.2431 C.3     
   5 O5             1.0191     2.1207     0.0037 O.2     
   6 H6            -0.9609     2.0300     0.0176 H       
   7 H7             1.0345    -0.3534    -0.0097 H       
   8 H8            -1.7327    -0.1812     1.2669 H       
   9 H9            -0.6854    -1.6204     1.2492 H       
  10 H10           -0.1829    -0.1650     2.1423 H       
  11 H11           -0.2237    -0.1421    -2.1359 H       
  12 H12           -0.7093    -1.6070    -1.2491 H       
  13 H13           -1.7565    -0.1678    -1.2314 H       
@<TRIPOS>BOND
   1    1    2 1
   2    1    5 2
   3    1    6 1
   4    2    3 1
   5    2    4 1
   6    2    7 1
   7    3    8 1
   8    3    9 1
   9    3   10 1
  10    4   11 1
  11    4   12 1
  12    4   13 1

#	End of record

