#	Name: ASD03320074
#	Creating user name:	WinNT
#	Creation time:	15. 06. 2019 20:36

#	Modifying user name:	WinNT
#	Modification time:	15. 06. 2019 20:36

#	Program:	/corina/corina34_cracker 3.40 0067  02.08.2006

@<TRIPOS>MOLECULE
ASD03320074
  30   31    0    0    0
SMALL
NO_CHARGES


@<TRIPOS>ATOM
   1 C1            -0.1749     1.4735    -0.5686 C.2     
   2 C2            -0.1527    -0.0034    -0.5721 C.ar    
   3 C3             0.8995    -0.6870    -1.1856 C.ar    
   4 C4             0.9153    -2.0659    -1.1855 C.ar    
   5 C5            -0.1116    -2.7736    -0.5772 C.ar    
   6 C6            -1.1578    -2.0994     0.0329 C.ar    
   7 C7            -1.1806    -0.7210     0.0430 C.ar    
   8 O8             0.7238     2.0962    -1.1004 O.2     
   9 N9            -1.1942     2.1307     0.0193 N.am    
  10 C10           -1.1618     3.5271     0.1194 C.ar    
  11 C11           -2.3383     4.2582     0.0198 C.ar    
  12 C12           -2.3056     5.6351     0.1186 C.ar    
  13 C13           -1.0978     6.2881     0.3169 C.ar    
  14 C14            0.0778     5.5585     0.4165 C.ar    
  15 C15            0.0460     4.1811     0.3241 C.ar    
  16 O16           -1.0663     7.6440     0.4131 O.3     
  17 C17            0.2115     8.2504     0.6172 C.3     
  18 F18            1.0558     7.9297    -0.4512 F       
  19 F19            0.0619     9.6393     0.6926 F       
  20 F20            0.7678     7.7758     1.8099 F       
  21 F21           -0.0919    -4.1244    -0.5800 F       
  22 Br22           2.3384    -2.9938    -2.0160 Br      
  23 H23            1.6989    -0.1368    -1.6595 H       
  24 H24           -1.9548    -2.6551     0.5046 H       
  25 H25           -1.9943    -0.1970     0.5223 H       
  26 H26           -1.9502     1.6365     0.3730 H       
  27 H27           -3.2785     3.7499    -0.1353 H       
  28 H28           -3.2204     6.2038     0.0411 H       
  29 H29            1.0178     6.0676     0.5705 H       
  30 H30            0.9607     3.6129     0.4065 H       
@<TRIPOS>BOND
   1    1    2 1
   2    1    8 2
   3    1    9 am
   4    2    3 ar
   5    2    7 ar
   6    3    4 ar
   7    3   23 1
   8    4    5 ar
   9    4   22 1
  10    5    6 ar
  11    5   21 1
  12    6    7 ar
  13    6   24 1
  14    7   25 1
  15    9   10 1
  16    9   26 1
  17   10   11 ar
  18   10   15 ar
  19   11   12 ar
  20   11   27 1
  21   12   13 ar
  22   12   28 1
  23   13   14 ar
  24   13   16 1
  25   14   15 ar
  26   14   29 1
  27   15   30 1
  28   16   17 1
  29   17   18 1
  30   17   19 1
  31   17   20 1

#	End of record

