#	Name: ASD01881175
#	Creating user name:	WinNT
#	Creation time:	15. 06. 2019 19:42

#	Modifying user name:	WinNT
#	Modification time:	15. 06. 2019 19:42

#	Program:	/corina/corina34_cracker 3.40 0067  02.08.2006

@<TRIPOS>MOLECULE
ASD01881175
  47   49    0    0    0
SMALL
NO_CHARGES


@<TRIPOS>ATOM
   1 Cl1            8.0449     4.6100     0.7367 Cl      
   2 N2            -0.0158     1.3136     0.0093 N.ar    
   3 C3             0.0021    -0.0041     0.0020 C.ar    
   4 N4             1.1320    -0.6826    -0.0124 N.ar    
   5 C5             2.2985    -0.0575    -0.0202 C.ar    
   6 C6             2.3211     1.3280    -0.0130 C.ar    
   7 C7             1.1121     2.0071     0.0022 C.ar    
   8 C8             3.6278     2.0786    -0.0209 C.3     
   9 O9             4.0285     2.3231    -1.3706 O.3     
  10 C10            5.1935     2.9941    -1.5555 C.ar    
  11 C11            5.6421     3.2655    -2.8449 C.ar    
  12 C12            6.8201     3.9446    -3.0317 C.ar    
  13 C13            7.5756     4.3674    -1.9326 C.ar    
  14 C14            7.1203     4.0930    -0.6386 C.ar    
  15 C15            5.9337     3.4143    -0.4578 C.ar    
  16 C16            7.5719     4.3897    -4.2613 C.3     
  17 N17            8.7756     5.0765    -3.7790 N.am    
  18 C18            8.7732     5.0611    -2.4351 C.2     
  19 O19            9.6377     5.5502    -1.7337 O.2     
  20 I20            1.0708     4.1017     0.0132 I       
  21 C21           -1.7608    -1.0017    -1.4284 C.3     
  22 C22           -1.3043    -0.7553     0.0110 C.3     
  23 C23            9.4503     7.1407    -4.9038 C.3     
  24 C24            9.8094     5.6801    -4.6234 C.3     
  25 C25            4.0070    -1.1003    -1.4840 C.3     
  26 C26            3.5851    -0.8421    -0.0362 C.3     
  27 H27            3.5043     3.0285     0.4992 H       
  28 H28            4.3908     1.4851     0.4828 H       
  29 H29            5.0639     2.9417    -3.6977 H       
  30 H30            5.5820     3.2023     0.5411 H       
  31 H31            7.8500     3.5250    -4.8640 H       
  32 H32            6.9593     5.0744    -4.8478 H       
  33 H33           -2.7057    -1.5451    -1.4219 H       
  34 H34           -1.8945    -0.0464    -1.9358 H       
  35 H35           -1.0073    -1.5894    -1.9529 H       
  36 H36           -1.1706    -1.7106     0.5184 H       
  37 H37           -2.0578    -0.1676     0.5355 H       
  38 H38           10.2195     7.5898    -5.5320 H       
  39 H39            8.4897     7.1867    -5.4168 H       
  40 H40            9.3859     7.6862    -3.9623 H       
  41 H41           10.7701     5.6342    -4.1104 H       
  42 H42            9.8738     5.1346    -5.5649 H       
  43 H43            3.2286    -1.6684    -1.9935 H       
  44 H44            4.1553    -0.1487    -1.9945 H       
  45 H45            4.9376    -1.6678    -1.4956 H       
  46 H46            4.3634    -0.2740     0.4732 H       
  47 H47            3.4368    -1.7937     0.4743 H       
@<TRIPOS>BOND
   1    1   14 1
   2    2    3 ar
   3    2    7 ar
   4    3    4 ar
   5    3   22 1
   6    4    5 ar
   7    5    6 ar
   8    5   26 1
   9    6    7 ar
  10    6    8 1
  11    7   20 1
  12    8    9 1
  13    8   27 1
  14    8   28 1
  15    9   10 1
  16   10   11 ar
  17   10   15 ar
  18   11   12 ar
  19   11   29 1
  20   12   13 ar
  21   12   16 1
  22   13   14 ar
  23   13   18 1
  24   14   15 ar
  25   15   30 1
  26   16   17 1
  27   16   31 1
  28   16   32 1
  29   17   18 am
  30   17   24 1
  31   18   19 2
  32   21   22 1
  33   21   33 1
  34   21   34 1
  35   21   35 1
  36   22   36 1
  37   22   37 1
  38   23   24 1
  39   23   38 1
  40   23   39 1
  41   23   40 1
  42   24   41 1
  43   24   42 1
  44   25   26 1
  45   25   43 1
  46   25   44 1
  47   25   45 1
  48   26   46 1
  49   26   47 1

#	End of record

