#	Name: ASD01885869
#	Creating user name:	WinNT
#	Creation time:	15. 06. 2019 19:50

#	Modifying user name:	WinNT
#	Modification time:	15. 06. 2019 19:50

#	Program:	/corina/corina34_cracker 3.40 0067  02.08.2006

@<TRIPOS>MOLECULE
ASD01885869
  54   57    0    0    0
SMALL
NO_CHARGES


@<TRIPOS>ATOM
   1 C1             0.4981     0.6061    -0.5692 C.ar    
   2 C2            -0.6753     1.3992    -0.6384 C.ar    
   3 C3            -0.5494     2.8039    -0.7863 C.ar    
   4 C4             0.7299     3.3374    -0.8567 C.ar    
   5 C5             1.8376     2.4848    -0.7806 C.ar    
   6 N6             1.6986     1.1792    -0.6484 N.ar    
   7 C7             0.3708    -0.7908    -0.4220 C.ar    
   8 C8            -0.8692    -1.3511    -0.3440 C.ar    
   9 C9            -2.0171    -0.5653    -0.4074 C.ar    
  10 C10           -1.9323     0.7866    -0.5605 C.ar    
  11 C11           -1.7450     3.6740    -0.8637 C.ar    
  12 C12           -1.8423     4.8037    -0.0508 C.ar    
  13 C13           -2.9577     5.6112    -0.1270 C.ar    
  14 C14           -2.7754     3.3700    -1.7538 C.ar    
  15 C15            3.2007     3.0618    -0.8632 C.2     
  16 N16            4.2787     2.2552    -0.8031 N.am    
  17 O17            3.3460     4.2620    -0.9851 O.2     
  18 C18           -0.9998    -2.8428    -0.1743 C.3     
  19 C19           -3.9812     5.3018    -1.0088 C.ar    
  20 C20           -3.8867     4.1838    -1.8225 C.ar    
  21 F21           -5.0722     6.0954    -1.0791 F       
  22 N22           -0.8929    -3.1839     1.2464 N.pl3   
  23 C23           -1.9249    -3.2651     2.1421 C.2     
  24 C24           -1.3854    -3.6047     3.3283 C.2     
  25 N25           -0.0602    -3.7274     3.1616 N.2     
  26 C26            0.2413    -3.4825     1.9157 C.2     
  27 C27           -2.1385    -3.8106     4.6173 C.3     
  28 C28           -3.0705    -5.0159     4.4764 C.3     
  29 C29           -1.1455    -4.0638     5.7533 C.3     
  30 C30           -0.2621    -2.8291     5.9432 C.3     
  31 O31           -2.9098    -2.6438     4.9099 O.3     
  32 F32           -2.3291    -6.1351     4.0827 F       
  33 F33           -3.6878    -5.2741     5.7049 F       
  34 F34           -4.0465    -4.7405     3.5127 F       
  35 F35            1.4728    -1.5699    -0.3591 F       
  36 H36            0.8698     4.4023    -0.9698 H       
  37 H37           -2.9877    -1.0333    -0.3346 H       
  38 H38           -2.8307     1.3838    -0.6120 H       
  39 H39           -1.0456     5.0453     0.6371 H       
  40 H40           -3.0339     6.4859     0.5019 H       
  41 H41           -2.7026     2.4991    -2.3883 H       
  42 H42            4.1627     1.2970    -0.7059 H       
  43 H43            5.1706     2.6327    -0.8572 H       
  44 H44           -1.9682    -3.1683    -0.5543 H       
  45 H45           -0.2054    -3.3425    -0.7287 H       
  46 H46           -4.6869     3.9468    -2.5081 H       
  47 H47           -2.9706    -3.0900     1.9370 H       
  48 H48            1.2338    -3.5113     1.4909 H       
  49 H49           -1.6915    -4.2651     6.6750 H       
  50 H50           -0.5215    -4.9225     5.5058 H       
  51 H51            0.4076    -2.9880     6.7883 H       
  52 H52            0.3254    -2.6605     5.0407 H       
  53 H53           -0.8900    -1.9592     6.1357 H       
  54 H54           -2.3828    -1.8396     5.0128 H       
@<TRIPOS>BOND
   1    1    7 ar
   2    1    6 ar
   3    1    2 ar
   4    2    3 ar
   5    2   10 ar
   6    3   11 1
   7    3    4 ar
   8    4    5 ar
   9    4   36 1
  10    5   15 1
  11    5    6 ar
  12    7   35 1
  13    7    8 ar
  14    8    9 ar
  15    8   18 1
  16    9   10 ar
  17    9   37 1
  18   10   38 1
  19   11   12 ar
  20   11   14 ar
  21   12   13 ar
  22   12   39 1
  23   13   19 ar
  24   13   40 1
  25   14   20 ar
  26   14   41 1
  27   15   16 am
  28   15   17 2
  29   16   42 1
  30   16   43 1
  31   18   22 1
  32   18   44 1
  33   18   45 1
  34   19   20 ar
  35   19   21 1
  36   20   46 1
  37   22   23 1
  38   22   26 1
  39   23   24 2
  40   23   47 1
  41   24   25 1
  42   24   27 1
  43   25   26 2
  44   26   48 1
  45   27   28 1
  46   27   29 1
  47   27   31 1
  48   28   32 1
  49   28   33 1
  50   28   34 1
  51   29   30 1
  52   29   49 1
  53   29   50 1
  54   30   51 1
  55   30   52 1
  56   30   53 1
  57   31   54 1

#	End of record

