#	Name: ASD03330236
#	Creating user name:	WinNT
#	Creation time:	15. 06. 2019 20:36

#	Modifying user name:	WinNT
#	Modification time:	15. 06. 2019 20:36

#	Program:	/corina/corina34_cracker 3.40 0067  02.08.2006

@<TRIPOS>MOLECULE
ASD03330236
  47   49    0    0    0
SMALL
NO_CHARGES


@<TRIPOS>ATOM
   1 C1            -0.0179     1.4655     0.0101 C.3     
   2 N2             0.0021    -0.0041     0.0020 N.3     
   3 C3             0.4494    -0.5231    -1.3031 C.3     
   4 C4             1.7237     0.1898    -1.6760 C.2     
   5 N5             2.1519     1.3316    -1.0766 N.pl3   
   6 C6             1.4184     2.0045    -0.0007 C.3     
   7 C7             2.6412    -0.1377    -2.6198 C.2     
   8 N8             3.6164     0.7992    -2.5865 N.2     
   9 C9             3.3274     1.6849    -1.6595 C.2     
  10 C10            4.1446     2.8676    -1.3094 C.ar    
  11 C11            5.1552     3.2999    -2.1686 C.ar    
  12 C12            2.5858    -1.3038    -3.5191 C.2     
  13 O13            1.6513    -2.0793    -3.4524 O.2     
  14 C14            3.5154    -2.6701    -5.3097 C.3     
  15 N15            3.5706    -1.5109    -4.4156 N.am    
  16 C16            4.7447    -2.6705    -6.2206 C.3     
  17 C17            6.0121    -2.7448    -5.3668 C.3     
  18 C18            4.6871    -3.8812    -7.1543 C.3     
  19 C19            4.7642    -1.3860    -7.0516 C.3     
  20 C20            5.9135     4.4038    -1.8366 C.ar    
  21 C21            5.6734     5.0815    -0.6547 C.ar    
  22 C22            4.6727     4.6578     0.2015 C.ar    
  23 C23            3.9040     3.5585    -0.1215 C.ar    
  24 H24           -0.5467     1.8255    -0.8724 H       
  25 H25           -0.5297     1.8160     0.9063 H       
  26 H26            0.5772    -0.3620     0.7498 H       
  27 H27            0.6347    -1.5947    -1.2296 H       
  28 H28           -0.3141    -0.3315    -2.0571 H       
  29 H29            1.4064     3.0795    -0.1803 H       
  30 H30            1.8965     1.7963     0.9564 H       
  31 H31            5.3438     2.7714    -3.0914 H       
  32 H32            3.5016    -3.5852    -4.7176 H       
  33 H33            2.6125    -2.6172    -5.9179 H       
  34 H34            4.3159    -0.8923    -4.4688 H       
  35 H35            5.9983    -3.6599    -4.7747 H       
  36 H36            6.8879    -2.7452    -6.0157 H       
  37 H37            6.0532    -1.8823    -4.7016 H       
  38 H38            3.7842    -3.8283    -7.7626 H       
  39 H39            5.5629    -3.8815    -7.8033 H       
  40 H40            4.6733    -4.7963    -6.5623 H       
  41 H41            4.8052    -0.5235    -6.3864 H       
  42 H42            5.6399    -1.3864    -7.7005 H       
  43 H43            3.8612    -1.3331    -7.6599 H       
  44 H44            6.6963     4.7393    -2.5007 H       
  45 H45            6.2699     5.9449    -0.3992 H       
  46 H46            4.4902     5.1911     1.1228 H       
  47 H47            3.1231     3.2287     0.5477 H       
@<TRIPOS>BOND
   1    1    2 1
   2    1    6 1
   3    1   24 1
   4    1   25 1
   5    2    3 1
   6    2   26 1
   7    3    4 1
   8    3   27 1
   9    3   28 1
  10    4    5 1
  11    4    7 2
  12    5    6 1
  13    5    9 1
  14    6   29 1
  15    6   30 1
  16    7    8 1
  17    7   12 1
  18    8    9 2
  19    9   10 1
  20   10   11 ar
  21   10   23 ar
  22   11   20 ar
  23   11   31 1
  24   12   13 2
  25   12   15 am
  26   14   15 1
  27   14   16 1
  28   14   32 1
  29   14   33 1
  30   15   34 1
  31   16   17 1
  32   16   18 1
  33   16   19 1
  34   17   35 1
  35   17   36 1
  36   17   37 1
  37   18   38 1
  38   18   39 1
  39   18   40 1
  40   19   41 1
  41   19   42 1
  42   19   43 1
  43   20   21 ar
  44   20   44 1
  45   21   22 ar
  46   21   45 1
  47   22   23 ar
  48   22   46 1
  49   23   47 1

#	End of record

