#	Name: ASD01913907
#	Creating user name:	WinNT
#	Creation time:	15. 06. 2019 20:02

#	Modifying user name:	WinNT
#	Modification time:	15. 06. 2019 20:02

#	Program:	/corina/corina34_cracker 3.40 0067  02.08.2006

@<TRIPOS>MOLECULE
ASD01913907
  43   45    0    0    0
SMALL
NO_CHARGES


@<TRIPOS>ATOM
   1 C1            -0.0173     1.4278     0.0099 C.ar    
   2 C2             0.0021    -0.0041     0.0020 C.1     
   3 C3             0.0180    -1.1779    -0.0044 C.1     
   4 C4             0.0374    -2.6098    -0.0123 C.ar    
   5 C5            -1.1552    -3.3455    -0.0049 C.ar    
   6 C6             0.0738    -5.2913    -0.0270 C.ar    
   7 N7             1.2234    -4.6331    -0.0401 N.ar    
   8 C8             1.2495    -3.3128    -0.0335 C.ar    
   9 N9            -1.0933    -4.6646    -0.0125 N.ar    
  10 C10            1.1561     3.5287     0.0105 C.ar    
  11 C11           -1.2347     2.1133     0.0310 C.ar    
  12 C12           -0.0527     4.2003     0.0256 C.ar    
  13 C13           -1.2456     3.4943     0.0390 C.ar    
  14 N14            0.0926    -6.6797    -0.0346 N.am    
  15 C15            1.2125    -7.4230    -0.0542 C.2     
  16 C16            0.8606    -8.8943    -0.0469 C.3     
  17 C17           -0.6195    -8.9280     0.3993 C.3     
  18 C18           -1.1075    -7.5243    -0.0159 C.3     
  19 O19            2.3406    -6.9787    -0.0750 O.2     
  20 C20           -1.3904   -10.0215    -0.3431 C.3     
  21 C21           -0.7308    -9.1145     1.9138 C.3     
  22 O22            1.0010    -9.4485    -1.3565 O.3     
  23 C23            2.2930    -9.9998    -1.6190 C.3     
  24 F24           -2.4217     4.1588     0.0595 F       
  25 C25            1.1827     2.1472     0.0023 C.ar    
  26 F26            2.3646     1.4927    -0.0125 F       
  27 H27           -2.1103    -2.8415     0.0073 H       
  28 H28            2.1905    -2.7829    -0.0446 H       
  29 H29            2.0815     4.0854     0.0001 H       
  30 H30           -2.1649     1.5645     0.0408 H       
  31 H31           -0.0674     5.2802     0.0319 H       
  32 H32            1.4861    -9.4326     0.6652 H       
  33 H33           -1.8290    -7.1463     0.7084 H       
  34 H34           -1.5527    -7.5585    -1.0103 H       
  35 H35           -0.9393   -10.9911    -0.1321 H       
  36 H36           -2.4285   -10.0237    -0.0107 H       
  37 H37           -1.3525    -9.8287    -1.4152 H       
  38 H38           -0.2318    -8.2877     2.4193 H       
  39 H39           -1.7820    -9.1348     2.2011 H       
  40 H40           -0.2577   -10.0539     2.1999 H       
  41 H41            2.3183   -10.3998    -2.6326 H       
  42 H42            3.0481    -9.2205    -1.5169 H       
  43 H43            2.4980   -10.7998    -0.9075 H       
@<TRIPOS>BOND
   1    1    2 1
   2    1   25 ar
   3    1   11 ar
   4    2    3 3
   5    3    4 1
   6    4    5 ar
   7    4    8 ar
   8    5    9 ar
   9    5   27 1
  10    6    7 ar
  11    6   14 1
  12    6    9 ar
  13    7    8 ar
  14    8   28 1
  15   10   12 ar
  16   10   25 ar
  17   10   29 1
  18   11   13 ar
  19   11   30 1
  20   12   13 ar
  21   12   31 1
  22   13   24 1
  23   14   15 am
  24   14   18 1
  25   15   16 1
  26   15   19 2
  27   16   17 1
  28   16   22 1
  29   16   32 1
  30   17   18 1
  31   17   20 1
  32   17   21 1
  33   18   33 1
  34   18   34 1
  35   20   35 1
  36   20   36 1
  37   20   37 1
  38   21   38 1
  39   21   39 1
  40   21   40 1
  41   22   23 1
  42   23   41 1
  43   23   42 1
  44   23   43 1
  45   25   26 1

#	End of record

