#	Name: ASD01001096
#	Creating user name:	WinNT
#	Creation time:	15. 06. 2019 18:55

#	Modifying user name:	WinNT
#	Modification time:	15. 06. 2019 18:55

#	Program:	/corina/corina34_cracker 3.40 0067  02.08.2006

@<TRIPOS>MOLECULE
ASD01001096
  65   68    0    0    0
SMALL
NO_CHARGES


@<TRIPOS>ATOM
   1 C1             0.3316     0.8743    -1.3018 C.2     
   2 N2             0.0037     0.7749     0.0365 N.pl3   
   3 N3            -1.1439     0.0587     0.3995 N.2     
   4 C4            -1.8929    -0.5046    -0.4880 C.2     
   5 N5            -1.6229    -0.4433    -1.8318 N.am    
   6 C6            -0.5414     0.2295    -2.2837 C.2     
   7 C7             1.4870     1.6174    -1.3981 C.2     
   8 C8             1.8531     1.9663    -0.0955 C.2     
   9 C9             0.9320     1.4394     0.7519 C.2     
  10 O10           -0.2944     0.2892    -3.4747 O.2     
  11 C11           -2.5167    -1.1070    -2.7842 C.3     
  12 C12           -3.6642    -0.1894    -3.1193 C.ar    
  13 C13           -3.5184     0.7677    -4.1059 C.ar    
  14 C14           -4.5711     1.6094    -4.4133 C.ar    
  15 C15           -5.7696     1.4936    -3.7344 C.ar    
  16 C16           -5.9157     0.5358    -2.7484 C.ar    
  17 C17           -4.8645    -0.3087    -2.4440 C.ar    
  18 C18           -3.1133    -1.2606    -0.0296 C.3     
  19 N19           -2.7018    -2.3925     0.8045 N.am    
  20 C20           -4.0147    -0.3293     0.7834 C.3     
  21 C21           -5.3231    -1.0488     1.1168 C.3     
  22 C22           -2.0667    -2.1531     2.1028 C.3     
  23 C23           -2.9074    -3.6542     0.3774 C.2     
  24 C24           -3.4550    -3.8971    -0.9742 C.ar    
  25 O25           -2.6427    -4.5924     1.1035 O.2     
  26 C26           -2.8475    -4.8264    -1.8200 C.ar    
  27 C27           -3.3634    -5.0483    -3.0801 C.ar    
  28 C28           -4.4805    -4.3519    -3.5060 C.ar    
  29 C29           -5.0873    -3.4290    -2.6727 C.ar    
  30 C30           -4.5851    -3.2022    -1.4080 C.ar    
  31 C31           -5.0387    -4.5994    -4.8838 C.3     
  32 C32           -3.1317    -2.1635     3.2012 C.3     
  33 C33           -2.4684    -1.9134     4.5571 C.3     
  34 N34           -3.4910    -1.9235     5.6117 N.3     
  35 H35            2.0101     1.8796    -2.3058 H       
  36 H36            2.7161     2.5508     0.1874 H       
  37 H37            0.9416     1.5378     1.8273 H       
  38 H38           -1.9655    -1.3465    -3.6935 H       
  39 H39           -2.9029    -2.0249    -2.3410 H       
  40 H40           -2.5820     0.8582    -4.6364 H       
  41 H41           -4.4569     2.3577    -5.1837 H       
  42 H42           -6.5918     2.1517    -3.9740 H       
  43 H43           -6.8520     0.4456    -2.2177 H       
  44 H44           -4.9786    -1.0570    -1.6736 H       
  45 H45           -3.6600    -1.6288    -0.8977 H       
  46 H46           -3.5086    -0.0489     1.7072 H       
  47 H47           -4.2308     0.5666     0.2012 H       
  48 H48           -5.8517    -1.2878     0.1940 H       
  49 H49           -5.1040    -1.9688     1.6587 H       
  50 H50           -5.9459    -0.4024     1.7352 H       
  51 H51           -1.3345    -2.9363     2.2991 H       
  52 H52           -1.5676    -1.1841     2.0899 H       
  53 H53           -1.9752    -5.3704    -1.4889 H       
  54 H54           -2.8941    -5.7669    -3.7357 H       
  55 H55           -5.9588    -2.8884    -3.0113 H       
  56 H56           -5.0598    -2.4817    -0.7583 H       
  57 H57           -5.7784    -5.3987    -4.8380 H       
  58 H58           -5.5100    -3.6890    -5.2538 H       
  59 H59           -4.2313    -4.8897    -5.5561 H       
  60 H60           -3.8639    -1.3803     3.0049 H       
  61 H61           -3.6308    -3.1325     3.2141 H       
  62 H62           -1.7363    -2.6967     4.7534 H       
  63 H63           -1.9693    -0.9445     4.5442 H       
  64 H64           -3.0778    -1.7604     6.5176 H       
  65 H65           -4.2164    -1.2493     5.4185 H       
@<TRIPOS>BOND
   1    1    2 1
   2    1    7 2
   3    1    6 1
   4    2    3 1
   5    2    9 1
   6    3    4 2
   7    4    5 1
   8    4   18 1
   9    5    6 am
  10    5   11 1
  11    6   10 2
  12    7    8 1
  13    7   35 1
  14    8    9 2
  15    8   36 1
  16    9   37 1
  17   11   12 1
  18   11   38 1
  19   11   39 1
  20   12   13 ar
  21   12   17 ar
  22   13   14 ar
  23   13   40 1
  24   14   15 ar
  25   14   41 1
  26   15   16 ar
  27   15   42 1
  28   16   17 ar
  29   16   43 1
  30   17   44 1
  31   18   19 1
  32   18   20 1
  33   18   45 1
  34   19   22 1
  35   19   23 am
  36   20   21 1
  37   20   46 1
  38   20   47 1
  39   21   48 1
  40   21   49 1
  41   21   50 1
  42   22   32 1
  43   22   51 1
  44   22   52 1
  45   23   24 1
  46   23   25 2
  47   24   26 ar
  48   24   30 ar
  49   26   27 ar
  50   26   53 1
  51   27   28 ar
  52   27   54 1
  53   28   29 ar
  54   28   31 1
  55   29   30 ar
  56   29   55 1
  57   30   56 1
  58   31   57 1
  59   31   58 1
  60   31   59 1
  61   32   33 1
  62   32   60 1
  63   32   61 1
  64   33   34 1
  65   33   62 1
  66   33   63 1
  67   34   64 1
  68   34   65 1

#	End of record

