#	Name: ASD01840270
#	Creating user name:	WinNT
#	Creation time:	15. 06. 2019 19:37

#	Modifying user name:	WinNT
#	Modification time:	15. 06. 2019 19:37

#	Program:	/corina/corina34_cracker 3.40 0067  02.08.2006

@<TRIPOS>MOLECULE
ASD01840270
  51   54    0    0    0
SMALL
NO_CHARGES


@<TRIPOS>ATOM
   1 C1             1.7187     1.2820     0.2338 C.3     
   2 C2             1.2770    -0.1568     0.1586 C.ar    
   3 N3             1.3876    -0.8222    -0.9778 N.ar    
   4 N4             1.0291    -2.0455    -1.0998 N.ar    
   5 C5             0.5149    -2.7425    -0.0844 C.ar    
   6 S6            -0.0418    -4.4063    -0.0084 S.3     
   7 C7            -0.4827    -4.2708     1.6871 C.2     
   8 C8            -1.0311    -5.0293     2.7530 C.2     
   9 N9            -1.4402    -6.3668     2.6798 N.pl3   
  10 C10           -1.9918    -7.0300     3.8640 C.3     
  11 C11           -3.5071    -7.2882     3.7804 C.3     
  12 N12           -3.1507    -8.5920     3.1879 N.am    
  13 C13           -1.8312    -8.5609     3.8482 C.3     
  14 C14           -3.7782    -9.4618     2.3718 C.2     
  15 O15           -4.8987    -9.2178     1.9699 O.2     
  16 O16           -3.1635   -10.6011     2.0017 O.3     
  17 C17           -3.8991   -11.4909     1.1211 C.3     
  18 C18           -4.2299   -10.7603    -0.1819 C.3     
  19 C19           -3.0461   -12.7230     0.8125 C.3     
  20 C20           -5.1965   -11.9271     1.8047 C.3     
  21 N21           -1.0903    -4.2696     3.8149 N.2     
  22 N22           -0.5921    -3.0035     3.4963 N.pl3   
  23 C23           -0.4865    -1.8631     4.4099 C.3     
  24 C24           -0.2162    -3.0181     2.1641 C.2     
  25 C25            0.3584    -2.1252     1.1581 C.ar    
  26 C26            0.7633    -0.7784     1.2771 C.ar    
  27 C27            0.6337    -0.0409     2.5850 C.3     
  28 H28            2.7704     1.3248     0.5171 H       
  29 H29            1.5850     1.7545    -0.7393 H       
  30 H30            1.1203     1.8074     0.9781 H       
  31 H31           -1.3584    -6.8541     1.8451 H       
  32 H32           -1.6750    -6.5651     4.7976 H       
  33 H33           -3.9939    -7.3657     4.7526 H       
  34 H34           -4.0291    -6.6217     3.0938 H       
  35 H35           -1.0152    -8.9106     3.2159 H       
  36 H36           -1.8256    -9.0123     4.8403 H       
  37 H37           -3.3057   -10.4495    -0.6689 H       
  38 H38           -4.7821   -11.4283    -0.8429 H       
  39 H39           -4.8377    -9.8826     0.0380 H       
  40 H40           -2.8104   -13.2435     1.7407 H       
  41 H41           -3.5983   -13.3909     0.1515 H       
  42 H42           -2.1218   -12.4122     0.3255 H       
  43 H43           -5.8043   -11.0494     2.0246 H       
  44 H44           -5.7487   -12.5951     1.1437 H       
  45 H45           -4.9609   -12.4477     2.7330 H       
  46 H46            0.5266    -1.8094     4.8084 H       
  47 H47           -0.7142    -0.9435     3.8709 H       
  48 H48           -1.1935    -1.9880     5.2301 H       
  49 H49           -0.3850     0.3317     2.6925 H       
  50 H50            0.8616    -0.7182     3.4081 H       
  51 H51            1.3306     0.7970     2.6002 H       
@<TRIPOS>BOND
   1    1    2 1
   2    1   28 1
   3    1   29 1
   4    1   30 1
   5    2   26 ar
   6    2    3 ar
   7    3    4 ar
   8    4    5 ar
   9    5   25 ar
  10    5    6 1
  11    6    7 1
  12    7   24 2
  13    7    8 1
  14    8    9 1
  15    8   21 2
  16    9   10 1
  17    9   31 1
  18   10   13 1
  19   10   11 1
  20   10   32 1
  21   11   12 1
  22   11   33 1
  23   11   34 1
  24   12   13 1
  25   12   14 am
  26   13   35 1
  27   13   36 1
  28   14   15 2
  29   14   16 1
  30   16   17 1
  31   17   18 1
  32   17   19 1
  33   17   20 1
  34   18   37 1
  35   18   38 1
  36   18   39 1
  37   19   40 1
  38   19   41 1
  39   19   42 1
  40   20   43 1
  41   20   44 1
  42   20   45 1
  43   21   22 1
  44   22   23 1
  45   22   24 1
  46   23   46 1
  47   23   47 1
  48   23   48 1
  49   24   25 1
  50   25   26 ar
  51   26   27 1
  52   27   49 1
  53   27   50 1
  54   27   51 1

#	End of record

