#	Name: ASD05130074
#	Creating user name:	WinNT
#	Creation time:	15. 06. 2019 20:56

#	Modifying user name:	WinNT
#	Modification time:	15. 06. 2019 20:56

#	Program:	/corina/corina34_cracker 3.40 0067  02.08.2006

@<TRIPOS>MOLECULE
ASD05130074
  61   64    0    0    0
SMALL
NO_CHARGES


@<TRIPOS>ATOM
   1 N1            -0.1620     1.5508     0.1046 N.am    
   2 C2             0.0502     0.4228     0.8110 C.2     
   3 O3             1.1172     0.2447     1.3662 O.2     
   4 N4            -0.9205    -0.5078     0.9021 N.am    
   5 C5            -0.6654    -1.7242     1.5452 C.ar    
   6 C6            -1.6763    -2.3639     2.2504 C.ar    
   7 C7            -1.4215    -3.5646     2.8836 C.ar    
   8 C8            -0.1613    -4.1299     2.8158 C.ar    
   9 C9             0.8476    -3.4952     2.1146 C.ar    
  10 C10            0.5976    -2.2972     1.4745 C.ar    
  11 C11            0.8124     2.5574     0.0829 C.ar    
  12 C12            0.4363     3.8864    -0.0889 C.ar    
  13 C13            1.3957     4.8832    -0.1109 C.ar    
  14 C14            2.7316     4.5644     0.0380 C.ar    
  15 C15            3.1164     3.2345     0.2107 C.ar    
  16 C16            2.1495     2.2306     0.2381 C.ar    
  17 F17           -0.8687     4.2039    -0.2350 F       
  18 N18            6.5386     2.8505     1.7804 N.am    
  19 C19            5.2361     3.1634     1.6344 C.2     
  20 C20            4.5488     2.8906     0.3701 C.2     
  21 C21            5.2380     2.3156    -0.6626 C.2     
  22 C22            6.6051     1.9964    -0.4848 C.ar    
  23 C23            7.3489     1.4076    -1.5148 C.ar    
  24 N24            8.6187     1.1171    -1.3330 N.ar    
  25 C25            9.2444     1.3636    -0.1870 C.ar    
  26 C26            8.5823     1.9449     0.8851 C.ar    
  27 C27            7.2386     2.2722     0.7467 C.ar    
  28 O28            4.6278     3.6750     2.5575 O.2     
  29 N29           10.5857     1.0329    -0.0596 N.pl3   
  30 C30           11.2894     1.2984     1.1975 C.3     
  31 C31           12.7447     0.8429     1.0734 C.3     
  32 O32           13.4110     1.6393     0.0916 O.3     
  33 C33           14.7839     1.2937    -0.1029 C.3     
  34 C34            7.2161     3.1335     3.0481 C.3     
  35 C35            7.0835     1.9257     3.9780 C.3     
  36 Br36           4.0387     5.9306     0.0072 Br      
  37 H37           -0.9875     1.6641    -0.3920 H       
  38 H38           -1.7959    -0.3344     0.5220 H       
  39 H39           -2.6606    -1.9227     2.3041 H       
  40 H40           -2.2071    -4.0623     3.4326 H       
  41 H41            0.0355    -5.0689     3.3117 H       
  42 H42            1.8309    -3.9389     2.0641 H       
  43 H43            1.3847    -1.8044     0.9231 H       
  44 H44            1.0994     5.9130    -0.2452 H       
  45 H45            2.4425     1.2003     0.3756 H       
  46 H46            4.7451     2.1080    -1.6009 H       
  47 H47            6.8779     1.1908    -2.4622 H       
  48 H48            9.1025     2.1400     1.8112 H       
  49 H49           11.0575     0.6259    -0.8030 H       
  50 H50           11.2601     2.3668     1.4117 H       
  51 H51           10.8055     0.7522     2.0072 H       
  52 H52           13.2448     0.9580     2.0350 H       
  53 H53           12.7732    -0.2043     0.7721 H       
  54 H54           15.3263     1.4182     0.8343 H       
  55 H55           14.8547     0.2560    -0.4286 H       
  56 H56           15.2179     1.9435    -0.8629 H       
  57 H57            8.2711     3.3328     2.8597 H       
  58 H58            6.7598     4.0051     3.5173 H       
  59 H59            7.5398     1.0541     3.5088 H       
  60 H60            7.5876     2.1363     4.9212 H       
  61 H61            6.0286     1.7264     4.1664 H       
@<TRIPOS>BOND
   1    1    2 am
   2    1   11 1
   3    1   37 1
   4    2    3 2
   5    2    4 am
   6    4    5 1
   7    4   38 1
   8    5    6 ar
   9    5   10 ar
  10    6    7 ar
  11    6   39 1
  12    7    8 ar
  13    7   40 1
  14    8    9 ar
  15    8   41 1
  16    9   10 ar
  17    9   42 1
  18   10   43 1
  19   11   12 ar
  20   11   16 ar
  21   12   13 ar
  22   12   17 1
  23   13   14 ar
  24   13   44 1
  25   14   15 ar
  26   14   36 1
  27   15   16 ar
  28   15   20 1
  29   16   45 1
  30   18   19 am
  31   18   27 1
  32   18   34 1
  33   19   20 1
  34   19   28 2
  35   20   21 2
  36   21   22 1
  37   21   46 1
  38   22   23 ar
  39   22   27 ar
  40   23   24 ar
  41   23   47 1
  42   24   25 ar
  43   25   26 ar
  44   25   29 1
  45   26   27 ar
  46   26   48 1
  47   29   30 1
  48   29   49 1
  49   30   31 1
  50   30   50 1
  51   30   51 1
  52   31   32 1
  53   31   52 1
  54   31   53 1
  55   32   33 1
  56   33   54 1
  57   33   55 1
  58   33   56 1
  59   34   35 1
  60   34   57 1
  61   34   58 1
  62   35   59 1
  63   35   60 1
  64   35   61 1

#	End of record

