#	Name: ASD03330759
#	Creating user name:	WinNT
#	Creation time:	15. 06. 2019 20:37

#	Modifying user name:	WinNT
#	Modification time:	15. 06. 2019 20:37

#	Program:	/corina/corina34_cracker 3.40 0067  02.08.2006

@<TRIPOS>MOLECULE
ASD03330759
  63   65    0    0    0
SMALL
NO_CHARGES


@<TRIPOS>ATOM
   1 C1             0.0434     1.1178     0.6672 C.2     
   2 N2             0.2362    -0.2181     0.7721 N.pl3   
   3 C3             1.2642     1.7108     0.7850 C.2     
   4 N4             2.1831     0.7333     0.9420 N.2     
   5 C5             1.5748    -0.4295     0.9297 C.2     
   6 C6             2.2308    -1.7488     1.0645 C.ar    
   7 C7             1.5339     3.1591     0.7479 C.2     
   8 O8             0.6173     3.9447     0.6004 O.2     
   9 C9             3.0644     5.0527     0.8406 C.3     
  10 N10            2.7963     3.6130     0.8775 N.am    
  11 C11            4.5061     5.2916     0.3872 C.3     
  12 C12            2.8673     5.6358     2.2162 C.2     
  13 O13            2.5355     4.9193     3.1367 O.2     
  14 C14           -0.8187    -1.2349     0.7353 C.3     
  15 C15           -1.7548    -0.9461    -0.4422 C.3     
  16 C16           -2.8548     0.0148    -0.0023 C.3     
  17 N17           -2.3554     0.9641     0.9946 N.3     
  18 C18           -1.2804     1.8017     0.4425 C.3     
  19 C19            1.5504    -2.8116     1.6599 C.ar    
  20 C20            3.5294    -1.9364     0.5919 C.ar    
  21 C21            4.1363    -3.1716     0.7206 C.ar    
  22 C22            3.4561    -4.2208     1.3172 C.ar    
  23 C23            2.1661    -4.0401     1.7829 C.ar    
  24 C24           -3.4465     1.7912     1.5269 C.3     
  25 N25            3.0597     6.9536     2.4234 N.am    
  26 C26            2.8681     7.5204     3.7607 C.3     
  27 C27            4.6628     4.8487    -1.0689 C.3     
  28 C28            4.4616     3.3351    -1.1660 C.3     
  29 C29            3.6186     5.5585    -1.9330 C.3     
  30 C30            6.0649     5.2096    -1.5636 C.3     
  31 F31            5.3942    -3.3561     0.2637 F       
  32 H32            2.3795     5.5321     0.1412 H       
  33 H33            3.5273     2.9863     0.9951 H       
  34 H34            4.7426     6.3522     0.4718 H       
  35 H35            5.1850     4.7166     1.0170 H       
  36 H36           -0.3703    -2.2205     0.6110 H       
  37 H37           -1.3849    -1.2061     1.6663 H       
  38 H38           -1.1856    -0.4973    -1.2563 H       
  39 H39           -2.2036    -1.8782    -0.7856 H       
  40 H40           -3.2176     0.5651    -0.8704 H       
  41 H41           -3.6777    -0.5561     0.4279 H       
  42 H42           -1.2797     2.7701     0.9427 H       
  43 H43           -1.4408     1.9428    -0.6264 H       
  44 H44            0.5432    -2.6727     2.0242 H       
  45 H45            4.0594    -1.1187     0.1262 H       
  46 H46            3.9334    -5.1846     1.4157 H       
  47 H47            1.6411    -4.8617     2.2474 H       
  48 H48           -4.1919     1.1502     1.9975 H       
  49 H49           -3.0479     2.4873     2.2650 H       
  50 H50           -3.9091     2.3498     0.7133 H       
  51 H51            3.3251     7.5267     1.6872 H       
  52 H52            3.0676     8.5916     3.7332 H       
  53 H53            1.8411     7.3503     4.0836 H       
  54 H54            3.5531     7.0411     4.4601 H       
  55 H55            3.4203     3.0926    -0.9539 H       
  56 H56            4.7155     2.9986    -2.1712 H       
  57 H57            5.1056     2.8357    -0.4422 H       
  58 H58            3.7620     6.6368    -1.8638 H       
  59 H59            3.7303     5.2429    -2.9704 H       
  60 H60            2.6198     5.3014    -1.5806 H       
  61 H61            6.8088     4.7039    -0.9480 H       
  62 H62            6.1766     4.8940    -2.6009 H       
  63 H63            6.2083     6.2879    -1.4944 H       
@<TRIPOS>BOND
   1    1    2 1
   2    1    3 2
   3    1   18 1
   4    2   14 1
   5    2    5 1
   6    3    4 1
   7    3    7 1
   8    4    5 2
   9    5    6 1
  10    6   20 ar
  11    6   19 ar
  12    7    8 2
  13    7   10 am
  14    9   10 1
  15    9   11 1
  16    9   12 1
  17    9   32 1
  18   10   33 1
  19   11   27 1
  20   11   34 1
  21   11   35 1
  22   12   13 2
  23   12   25 am
  24   14   15 1
  25   14   36 1
  26   14   37 1
  27   15   16 1
  28   15   38 1
  29   15   39 1
  30   16   17 1
  31   16   40 1
  32   16   41 1
  33   17   18 1
  34   17   24 1
  35   18   42 1
  36   18   43 1
  37   19   23 ar
  38   19   44 1
  39   20   21 ar
  40   20   45 1
  41   21   22 ar
  42   21   31 1
  43   22   23 ar
  44   22   46 1
  45   23   47 1
  46   24   48 1
  47   24   49 1
  48   24   50 1
  49   25   26 1
  50   25   51 1
  51   26   52 1
  52   26   53 1
  53   26   54 1
  54   27   29 1
  55   27   30 1
  56   27   28 1
  57   28   55 1
  58   28   56 1
  59   28   57 1
  60   29   58 1
  61   29   59 1
  62   29   60 1
  63   30   61 1
  64   30   62 1
  65   30   63 1

#	End of record

