#	Name: ASD05740131
#	Creating user name:	WinNT
#	Creation time:	15. 06. 2019 21:02

#	Modifying user name:	WinNT
#	Modification time:	15. 06. 2019 21:02

#	Program:	/corina/corina34_cracker 3.40 0067  02.08.2006

@<TRIPOS>MOLECULE
ASD05740131
  52   53    0    0    0
SMALL
NO_CHARGES


@<TRIPOS>ATOM
   1 C1            -0.0188     1.5385     0.0105 C.3     
   2 C2            -2.7201    -1.9639     1.2126 C.3     
   3 C3            -1.8701    -4.1477     0.2265 C.2     
   4 C4            -1.1058    -4.8142    -0.7146 C.2     
   5 C5            -1.8983    -2.7236     0.2034 C.2     
   6 C6            -1.1790    -2.0558    -0.7360 C.2     
   7 C7            -0.4187    -2.7782    -1.6696 C.2     
   8 O8            -0.3997    -4.1181    -1.6376 O.3     
   9 C9            -1.1972    -0.5495    -0.7759 C.3     
  10 C10            0.0021    -0.0041     0.0020 C.3     
  11 S11            1.5650    -0.4413    -0.8457 S.3     
  12 O12            0.2286    -2.1830    -2.5146 O.2     
  13 C13            1.4296     2.0573    -0.0005 C.3     
  14 C14            2.1834     1.2667    -1.1022 C.3     
  15 N15            1.4461     3.4888    -0.3117 N.am    
  16 S16            2.5876     4.4723     0.3752 S.o2    
  17 O17            2.3609     5.7748    -0.1457 O.2     
  18 O18            2.5847     4.1800     1.7658 O.2     
  19 S19           -1.2419    -6.5523    -0.4712 S.3     
  20 C20           -2.3245    -6.3451     0.8918 C.2     
  21 C21           -2.5571    -5.0635     1.1255 C.2     
  22 O22           -2.8590    -7.3664     1.6106 O.3     
  23 C23           -2.5038    -8.6931     1.2158 C.3     
  24 N24            4.0627     3.9883    -0.2012 N.am    
  25 C25            4.3733     4.1259    -1.6263 C.3     
  26 H26           -0.5444     1.9021    -0.8725 H       
  27 H27           -0.5274     1.8925     0.9072 H       
  28 H28           -3.2215    -2.6678     1.8767 H       
  29 H29           -2.0683    -1.3144     1.7969 H       
  30 H30           -3.4647    -1.3599     0.6941 H       
  31 H31           -1.1424    -0.2127    -1.8111 H       
  32 H32           -2.1197    -0.1852    -0.3237 H       
  33 H33           -0.0001    -0.3897     1.0215 H       
  34 H34            1.8960     1.8818     0.9689 H       
  35 H35            3.2611     1.3167    -0.9470 H       
  36 H36            1.9156     1.6316    -2.0937 H       
  37 H37            0.7884     3.8604    -0.9202 H       
  38 H38           -3.1995    -4.7239     1.9245 H       
  39 H39           -2.9974    -9.4114     1.8703 H       
  40 H40           -2.8197    -8.8626     0.1864 H       
  41 H41           -1.4234    -8.8171     1.2894 H       
  42 H42            4.7210     3.6137     0.4047 H       
  43 H43            5.3815     3.7575    -1.8157 H       
  44 H44            3.6589     3.5467    -2.2114 H       
  45 H45            4.3105     5.1759    -1.9121 H       
  46 C46           10.9087    13.4441     8.7928 C.3     
  47 N47           10.9285    11.9793     8.7847 N.2     
  48 C48           11.4692    11.3668     7.8387 C.1     
  49 O49           11.9918    10.7748     6.9245 O.2     
  50 H50           11.9313    13.8214     8.7850 H       
  51 H51           10.3815    13.8052     7.9097 H       
  52 H52           10.3985    13.7957     9.6895 H       
@<TRIPOS>BOND
   1    1   10 1
   2    1   13 1
   3    1   26 1
   4    1   27 1
   5    2    5 1
   6    2   28 1
   7    2   29 1
   8    2   30 1
   9    3    4 2
  10    3    5 1
  11    3   21 1
  12    4   19 1
  13    4    8 1
  14    5    6 2
  15    6    7 1
  16    6    9 1
  17    7    8 1
  18    7   12 2
  19    9   10 1
  20    9   31 1
  21    9   32 1
  22   10   11 1
  23   10   33 1
  24   11   14 1
  25   13   14 1
  26   13   15 1
  27   13   34 1
  28   14   35 1
  29   14   36 1
  30   15   16 am
  31   15   37 1
  32   16   17 2
  33   16   18 2
  34   16   24 am
  35   19   20 1
  36   20   21 2
  37   20   22 1
  38   21   38 1
  39   22   23 1
  40   23   39 1
  41   23   40 1
  42   23   41 1
  43   24   25 1
  44   24   42 1
  45   25   43 1
  46   25   44 1
  47   25   45 1
  48   46   47 1
  49   46   50 1
  50   46   51 1
  51   46   52 1
  52   47   48 2
  53   48   49 2

#	End of record

