#	Name: ASD06620007
#	Creating user name:	WinNT
#	Creation time:	15. 06. 2019 21:07

#	Modifying user name:	WinNT
#	Modification time:	15. 06. 2019 21:07

#	Program:	/corina/corina34_cracker 3.40 0067  02.08.2006

@<TRIPOS>MOLECULE
ASD06620007
  63   64    0    0    0
SMALL
NO_CHARGES


@<TRIPOS>ATOM
   1 C1             5.5143     1.4035     3.0746 C.2     
   2 C2             6.3173     0.3752     3.6121 C.2     
   3 C3             7.5984     0.6514     3.9795 C.2     
   4 C4             8.1040     1.9539     3.8194 C.2     
   5 C5             7.3245     2.9270     3.3046 C.2     
   6 N6             6.0376     2.6642     2.9313 N.pl3   
   7 N7             4.2601     1.4093     2.6501 N.2     
   8 C8             3.9373     2.6403     2.2221 C.2     
   9 C9             5.0542     3.4567     2.3924 C.2     
  10 C10            2.6354     3.0548     1.6756 C.2     
  11 O11            2.4639     4.2042     1.3192 O.2     
  12 O12            1.6328     2.1597     1.5701 O.3     
  13 C13            5.1551     4.8487     2.0718 C.1     
  14 C14            5.2379     5.9899     1.8090 C.1     
  15 C15            5.3416     7.4208     1.4795 C.3     
  16 C16            4.0122     7.9084     0.9000 C.3     
  17 O17            4.1129     9.2975     0.5801 O.3     
  18 Si18           2.7944     9.9041    -0.1641 Si      
  19 C19            1.3121     9.7176     0.9490 C.3     
  20 C20            0.7893     8.2822     0.8658 C.3     
  21 C21            1.7149    10.0309     2.3914 C.3     
  22 C22            3.0674    11.7088    -0.5376 C.3     
  23 C23            3.4408    12.4454     0.7503 C.3     
  24 C24            4.2011    11.8532    -1.5548 C.3     
  25 C25            2.4976     8.9789    -1.7536 C.3     
  26 C26            1.4677     9.7323    -2.5976 C.3     
  27 C27            3.8105     8.8669    -2.5313 C.3     
  28 Cl28           8.6037    -0.5985     4.6434 Cl      
  29 C29            0.3764     2.6387     1.0222 C.3     
  30 C30           -0.6329     1.4896     0.9804 C.3     
  31 H31            5.9190    -0.6216     3.7311 H       
  32 H32            9.1201     2.1760     4.1100 H       
  33 H33            7.7223     3.9241     3.1865 H       
  34 H34            5.5733     7.9857     2.3824 H       
  35 H35            6.1338     7.5681     0.7454 H       
  36 H36            3.7804     7.3435    -0.0029 H       
  37 H37            3.2200     7.7611     1.6341 H       
  38 H38            0.5305    10.4080     0.6319 H       
  39 H39            1.5961     7.5875     1.0991 H       
  40 H40           -0.0227     8.1493     1.5807 H       
  41 H41            0.4218     8.0871    -0.1417 H       
  42 H42            1.9812    11.0847     2.4736 H       
  43 H43            0.8794     9.8143     3.0571 H       
  44 H44            2.5710     9.4169     2.6711 H       
  45 H45            2.1533    12.1369    -0.9491 H       
  46 H46            3.7049    13.4765     0.5156 H       
  47 H47            2.5922    12.4343     1.4343 H       
  48 H48            4.2914    11.9500     1.2186 H       
  49 H49            3.8710    11.4763    -2.5228 H       
  50 H50            4.4739    12.9044    -1.6480 H       
  51 H51            5.0662    11.2818    -1.2183 H       
  52 H52            2.1225     7.9806    -1.5284 H       
  53 H53            1.2240     9.1452    -3.4831 H       
  54 H54            0.5645     9.8945    -2.0093 H       
  55 H55            1.8807    10.6941    -2.9018 H       
  56 H56            4.5520     8.3522    -1.9202 H       
  57 H57            3.6422     8.3038    -3.4493 H       
  58 H58            4.1727     9.8648    -2.7784 H       
  59 H59           -0.0118     3.4405     1.6503 H       
  60 H60            0.5403     3.0151     0.0124 H       
  61 H61           -0.2448     0.6878     0.3523 H       
  62 H62           -0.7969     1.1132     1.9901 H       
  63 H63           -1.5761     1.8492     0.5691 H       
@<TRIPOS>BOND
   1    1    2 1
   2    1    6 1
   3    1    7 2
   4    2    3 2
   5    2   31 1
   6    3    4 1
   7    3   28 1
   8    4    5 2
   9    4   32 1
  10    5    6 1
  11    5   33 1
  12    6    9 1
  13    7    8 1
  14    8    9 2
  15    8   10 1
  16    9   13 1
  17   10   11 2
  18   10   12 1
  19   12   29 1
  20   13   14 3
  21   14   15 1
  22   15   16 1
  23   15   34 1
  24   15   35 1
  25   16   17 1
  26   16   36 1
  27   16   37 1
  28   17   18 1
  29   18   19 1
  30   18   22 1
  31   18   25 1
  32   19   20 1
  33   19   21 1
  34   19   38 1
  35   20   39 1
  36   20   40 1
  37   20   41 1
  38   21   42 1
  39   21   43 1
  40   21   44 1
  41   22   23 1
  42   22   24 1
  43   22   45 1
  44   23   46 1
  45   23   47 1
  46   23   48 1
  47   24   49 1
  48   24   50 1
  49   24   51 1
  50   25   26 1
  51   25   27 1
  52   25   52 1
  53   26   53 1
  54   26   54 1
  55   26   55 1
  56   27   56 1
  57   27   57 1
  58   27   58 1
  59   29   30 1
  60   29   59 1
  61   29   60 1
  62   30   61 1
  63   30   62 1
  64   30   63 1

#	End of record

