#	Name: ASD06660076
#	Creating user name:	WinNT
#	Creation time:	15. 06. 2019 21:07

#	Modifying user name:	WinNT
#	Modification time:	15. 06. 2019 21:07

#	Program:	/corina/corina34_cracker 3.40 0067  02.08.2006

@<TRIPOS>MOLECULE
ASD06660076
  73   77    0    0    0
SMALL
NO_CHARGES


@<TRIPOS>ATOM
   1 C1            -0.4851     1.5096     1.0440 C.2     
   2 C2            -0.3185     0.0662     0.6442 C.3     
   3 C3            -1.3256    -0.2781    -0.4549 C.3     
   4 O4             0.4378     2.2801     0.9239 O.2     
   5 O5            -1.6605     1.9405     1.5283 O.3     
   6 C6            -1.2585    -1.7538    -0.7534 C.ar    
   7 C7            -2.0350    -2.6394    -0.0277 C.ar    
   8 C8            -1.9776    -3.9916    -0.2960 C.ar    
   9 C9            -1.1348    -4.4651    -1.3016 C.ar    
  10 C10           -0.3546    -3.5670    -2.0301 C.ar    
  11 C11           -0.4248    -2.2165    -1.7558 C.ar    
  12 O12           -1.7957    -6.8346    -0.9273 O.3     
  13 C13           -1.0681    -5.9143    -1.5941 C.2     
  14 N14           -0.3058    -6.4161    -2.5147 N.2     
  15 C15           -0.4998    -7.8790    -2.5356 C.3     
  16 C16           -1.8025    -8.0428    -1.7152 C.3     
  17 C17           -0.6885    -8.3848    -3.9672 C.3     
  18 N18            0.4600    -7.9822    -4.7827 N.pl3   
  19 C19            0.5138    -8.3302    -6.1274 C.ar    
  20 C20           -0.5266    -9.0611    -6.6926 C.ar    
  21 C21           -0.4601    -9.4005    -8.0316 C.ar    
  22 C22            0.6487    -8.9963    -8.7636 C.ar    
  23 C23            1.6445    -8.2732    -8.1386 C.ar    
  24 N24            1.5519    -7.9587    -6.8603 N.ar    
  25 C25            2.0670    -0.2684     1.0114 C.2     
  26 C26            3.4493    -0.3927     0.5074 C.ar    
  27 C27            4.0369    -1.6538     0.3785 C.ar    
  28 C28            5.3261    -1.7660    -0.0924 C.ar    
  29 C29            6.0430    -0.6260    -0.4393 C.ar    
  30 C30            5.4618     0.6304    -0.3119 C.ar    
  31 C31            4.1706     0.7498     0.1529 C.ar    
  32 O32            1.8535    -0.2744     2.2083 O.2     
  33 N33            1.0419    -0.1483     0.1447 N.am    
  34 C34            3.5391     2.1118     0.2844 C.3     
  35 C35            8.0472    -1.8984    -1.0940 C.2     
  36 N36            9.2320    -1.6035    -1.5542 N.2     
  37 C37            9.3392    -0.2729    -1.6873 C.2     
  38 C38            8.1779     0.2840    -1.2955 C.2     
  39 N39            7.3522    -0.7438    -0.9172 N.pl3   
  40 C40            3.2610    -2.8897     0.7547 C.3     
  41 C41            2.4331    -3.3568    -0.4443 C.3     
  42 H42           -0.4926    -0.5730     1.5098 H       
  43 H43           -2.3305    -0.0204    -0.1206 H       
  44 H44           -1.0867     0.2861    -1.3563 H       
  45 H45           -1.7194     2.8746     1.7711 H       
  46 H46           -2.6872    -2.2716     0.7506 H       
  47 H47           -2.5838    -4.6821     0.2717 H       
  48 H48            0.3001    -3.9275    -2.8096 H       
  49 H49            0.1757    -1.5198    -2.3218 H       
  50 H50            0.3324    -8.3891    -2.0506 H       
  51 H51           -1.7554    -8.9259    -1.0780 H       
  52 H52           -2.6744    -8.0793    -2.3682 H       
  53 H53           -0.7665    -9.4720    -3.9612 H       
  54 H54           -1.5994    -7.9575    -4.3864 H       
  55 H55            1.1830    -7.4727    -4.3843 H       
  56 H56           -1.3743    -9.3595    -6.0937 H       
  57 H57           -1.2525    -9.9675    -8.4975 H       
  58 H58            0.7312    -9.2455    -9.8112 H       
  59 H59            2.5085    -7.9568    -8.7041 H       
  60 H60            5.7811    -2.7404    -0.1919 H       
  61 H61            6.0218     1.5136    -0.5816 H       
  62 H62            1.2049    -0.2038    -0.8099 H       
  63 H63            3.7438     2.5129     1.2770 H       
  64 H64            3.9549     2.7795    -0.4701 H       
  65 H65            2.4617     2.0280     0.1415 H       
  66 H66            7.6788    -2.8933    -0.8919 H       
  67 H67           10.2074     0.2596    -2.0464 H       
  68 H68            7.9417     1.3378    -1.2818 H       
  69 H69            3.9538    -3.6787     1.0472 H       
  70 H70            2.5967    -2.6620     1.5883 H       
  71 H71            1.7964    -4.1890    -0.1441 H       
  72 H72            1.8124    -2.5343    -0.7997 H       
  73 H73            3.1007    -3.6797    -1.2431 H       
@<TRIPOS>BOND
   1    1    2 1
   2    1    4 2
   3    1    5 1
   4    2    3 1
   5    2   33 1
   6    2   42 1
   7    3    6 1
   8    3   43 1
   9    3   44 1
  10    5   45 1
  11    6    7 ar
  12    6   11 ar
  13    7    8 ar
  14    7   46 1
  15    8    9 ar
  16    8   47 1
  17    9   10 ar
  18    9   13 1
  19   10   11 ar
  20   10   48 1
  21   11   49 1
  22   12   13 1
  23   12   16 1
  24   13   14 2
  25   14   15 1
  26   15   16 1
  27   15   17 1
  28   15   50 1
  29   16   51 1
  30   16   52 1
  31   17   18 1
  32   17   53 1
  33   17   54 1
  34   18   19 1
  35   18   55 1
  36   19   20 ar
  37   19   24 ar
  38   20   21 ar
  39   20   56 1
  40   21   22 ar
  41   21   57 1
  42   22   23 ar
  43   22   58 1
  44   23   24 ar
  45   23   59 1
  46   25   26 1
  47   25   32 2
  48   25   33 am
  49   26   27 ar
  50   26   31 ar
  51   27   28 ar
  52   27   40 1
  53   28   29 ar
  54   28   60 1
  55   29   30 ar
  56   29   39 1
  57   30   31 ar
  58   30   61 1
  59   31   34 1
  60   33   62 1
  61   34   63 1
  62   34   64 1
  63   34   65 1
  64   35   36 2
  65   35   39 1
  66   35   66 1
  67   36   37 1
  68   37   38 2
  69   37   67 1
  70   38   39 1
  71   38   68 1
  72   40   41 1
  73   40   69 1
  74   40   70 1
  75   41   71 1
  76   41   72 1
  77   41   73 1

#	End of record

