#	Name: ASD01001192
#	Creating user name:	WinNT
#	Creation time:	15. 06. 2019 18:55

#	Modifying user name:	WinNT
#	Modification time:	15. 06. 2019 18:55

#	Program:	/corina/corina34_cracker 3.40 0067  02.08.2006

@<TRIPOS>MOLECULE
ASD01001192
  57   60    0    0    0
SMALL
NO_CHARGES


@<TRIPOS>ATOM
   1 C1            -0.0187     1.5258     0.0104 C.3     
   2 C2             1.4167     2.0553    -0.0004 C.3     
   3 C3             1.4053     3.5866     0.0079 C.3     
   4 N4             2.1223     1.6081     1.2093 N.pl3   
   5 C5             0.5768     4.1143    -1.1602 C.3     
   6 C6             2.8407     4.0996    -0.0776 C.3     
   7 C7             3.3066     2.2539     1.5813 C.ar    
   8 C8             1.2649     3.7558    -2.4807 C.3     
   9 C9             3.6839     3.4504     0.9917 C.ar    
  10 O10            3.3977     3.7804    -1.3551 O.3     
  11 C11            4.1108     1.6787     2.5594 C.ar    
  12 C12            2.6865     4.3262    -2.4664 C.3     
  13 C13            4.8580     4.0685     1.3849 C.ar    
  14 C14            5.2815     2.3005     2.9452 C.ar    
  15 C15            5.6542     3.4957     2.3583 C.ar    
  16 C16            6.9313     4.1750     2.7810 C.3     
  17 C17            6.6106     5.5646     3.3351 C.3     
  18 C18            7.6187     3.3405     3.8636 C.3     
  19 C19            7.8612     4.3095     1.5735 C.3     
  20 C20            0.0021    -0.0041     0.0020 C.3     
  21 C21           -1.4333    -0.5336     0.0129 C.3     
  22 C22           -2.1494    -0.0402     1.2717 C.3     
  23 C23           -2.1702     1.4896     1.2801 C.3     
  24 C24           -0.7348     2.0192     1.2692 C.3     
  25 H25           -0.5459     1.8868    -0.8726 H       
  26 H26            1.9370     1.6944    -0.8876 H       
  27 H27            0.9697     3.9368     0.9437 H       
  28 H28            1.7720     0.8767     1.7416 H       
  29 H29           -0.4156     3.6642    -1.1341 H       
  30 H30            0.4858     5.1976    -1.0807 H       
  31 H31            2.8486     5.1808     0.0605 H       
  32 H32            1.3070     2.6720    -2.5883 H       
  33 H33            0.7068     4.1862    -3.3122 H       
  34 H34            3.8192     0.7453     3.0177 H       
  35 H35            3.1959     4.0585    -3.3921 H       
  36 H36            2.6429     5.4114    -2.3738 H       
  37 H37            5.1533     5.0019     0.9290 H       
  38 H38            5.9056     1.8539     3.7052 H       
  39 H39            5.9481     5.4687     4.1953 H       
  40 H40            7.5343     6.0559     3.6408 H       
  41 H41            6.1209     6.1591     2.5638 H       
  42 H42            7.8472     2.3505     3.4689 H       
  43 H43            8.5424     3.8318     4.1693 H       
  44 H44            6.9562     3.2446     4.7238 H       
  45 H45            7.3715     4.9041     0.8023 H       
  46 H46            8.7849     4.8009     1.8792 H       
  47 H47            8.0897     3.3196     1.1788 H       
  48 H48            0.5123    -0.3556    -0.8948 H       
  49 H49            0.5293    -0.3651     0.8851 H       
  50 H50           -1.9605    -0.1726    -0.8702 H       
  51 H51           -1.4185    -1.6235     0.0069 H       
  52 H52           -3.1720    -0.4175     1.2794 H       
  53 H53           -1.6223    -0.4013     2.1547 H       
  54 H54           -2.6974     1.8507     0.3970 H       
  55 H55           -2.6804     1.8411     2.1769 H       
  56 H56           -0.2076     1.6581     2.1523 H       
  57 H57           -0.7496     3.1091     1.2752 H       
@<TRIPOS>BOND
   1    1   20 1
   2    1    2 1
   3    1   24 1
   4    1   25 1
   5    2    3 1
   6    2    4 1
   7    2   26 1
   8    3    5 1
   9    3    6 1
  10    3   27 1
  11    4    7 1
  12    4   28 1
  13    5    8 1
  14    5   29 1
  15    5   30 1
  16    6    9 1
  17    6   10 1
  18    6   31 1
  19    7    9 ar
  20    7   11 ar
  21    8   12 1
  22    8   32 1
  23    8   33 1
  24    9   13 ar
  25   10   12 1
  26   11   14 ar
  27   11   34 1
  28   12   35 1
  29   12   36 1
  30   13   15 ar
  31   13   37 1
  32   14   15 ar
  33   14   38 1
  34   15   16 1
  35   16   17 1
  36   16   18 1
  37   16   19 1
  38   17   39 1
  39   17   40 1
  40   17   41 1
  41   18   42 1
  42   18   43 1
  43   18   44 1
  44   19   45 1
  45   19   46 1
  46   19   47 1
  47   20   21 1
  48   20   48 1
  49   20   49 1
  50   21   22 1
  51   21   50 1
  52   21   51 1
  53   22   23 1
  54   22   52 1
  55   22   53 1
  56   23   24 1
  57   23   54 1
  58   23   55 1
  59   24   56 1
  60   24   57 1

#	End of record

