#	Name: ASD09740225
#	Creating user name:	WinNT
#	Creation time:	15. 06. 2019 21:23

#	Modifying user name:	WinNT
#	Modification time:	15. 06. 2019 21:23

#	Program:	/corina/corina34_cracker 3.40 0067  02.08.2006

@<TRIPOS>MOLECULE
ASD09740225
  48   51    0    0    0
SMALL
NO_CHARGES


@<TRIPOS>ATOM
   1 O1            -0.2478     1.3708    -0.0233 O.3     
   2 N2            -0.3272     0.1634     0.0603 N.2     
   3 C3             1.0346     1.7489     0.0955 C.2     
   4 N4             1.7410     0.6443     0.2618 N.2     
   5 C5             0.8505    -0.3593     0.2362 C.2     
   6 C6             1.1594    -1.8267     0.3850 C.3     
   7 C7             1.5549     3.1305     0.0494 C.ar    
   8 C8             0.4198    -2.3843     1.6043 C.3     
   9 C9             0.6987    -2.5762    -0.8682 C.3     
  10 C10            0.9594    -4.0732    -0.6861 C.3     
  11 N11            0.2297    -4.5586     0.4923 N.3     
  12 C12            0.6885    -3.8868     1.7148 C.3     
  13 C13            0.6775     4.2023    -0.1336 C.ar    
  14 C14            1.1635     5.4894    -0.1760 C.ar    
  15 C15            2.5318     5.7240    -0.0368 C.ar    
  16 C16            3.4086     4.6547     0.1459 C.ar    
  17 C17            2.9240     3.3669     0.1944 C.ar    
  18 C18            3.0543     7.1109    -0.0836 C.ar    
  19 C19            0.3447    -6.0176     0.6185 C.3     
  20 C20            2.5983     8.0615     0.8284 C.ar    
  21 C21            4.0075     7.4677    -1.0361 C.ar    
  22 C22            4.4901     8.7600    -1.0749 C.ar    
  23 C23            4.0297     9.7005    -0.1710 C.ar    
  24 C24            3.0881     9.3507     0.7801 C.ar    
  25 C25            0.2174     6.6457    -0.3733 C.3     
  26 F26           -1.0669     6.1576    -0.6372 F       
  27 F27            0.1896     7.4286     0.7858 F       
  28 F28            0.6510     7.4243    -1.4517 F       
  29 H29            2.2329    -1.9614     0.5172 H       
  30 H30            0.7747    -1.8839     2.5053 H       
  31 H31           -0.6506    -2.2134     1.4901 H       
  32 H32           -0.3673    -2.4084    -1.0213 H       
  33 H33            1.2529    -2.2130    -1.7337 H       
  34 H34            0.6194    -4.6114    -1.5709 H       
  35 H35            2.0272    -4.2416    -0.5468 H       
  36 H36            1.7577    -4.0561     1.8428 H       
  37 H37            0.1518    -4.2895     2.5738 H       
  38 H38           -0.3816     4.0209    -0.2421 H       
  39 H39            4.4676     4.8374     0.2536 H       
  40 H40            3.6030     2.5391     0.3362 H       
  41 H41            1.3947    -6.2919     0.7202 H       
  42 H42           -0.2047    -6.3505     1.4991 H       
  43 H43           -0.0707    -6.4930    -0.2701 H       
  44 H44            1.8629     7.7896     1.5711 H       
  45 H45            4.3679     6.7341    -1.7420 H       
  46 H46            5.2289     9.0374    -1.8122 H       
  47 H47            4.4105    10.7106    -0.2049 H       
  48 H48            2.7322    10.0892     1.4833 H       
@<TRIPOS>BOND
   1    1    2 1
   2    1    3 1
   3    2    5 2
   4    3    4 2
   5    3    7 1
   6    4    5 1
   7    5    6 1
   8    6    8 1
   9    6    9 1
  10    6   29 1
  11    7   13 ar
  12    7   17 ar
  13    8   12 1
  14    8   30 1
  15    8   31 1
  16    9   10 1
  17    9   32 1
  18    9   33 1
  19   10   11 1
  20   10   34 1
  21   10   35 1
  22   11   12 1
  23   11   19 1
  24   12   36 1
  25   12   37 1
  26   13   14 ar
  27   13   38 1
  28   14   15 ar
  29   14   25 1
  30   15   16 ar
  31   15   18 1
  32   16   17 ar
  33   16   39 1
  34   17   40 1
  35   18   20 ar
  36   18   21 ar
  37   19   41 1
  38   19   42 1
  39   19   43 1
  40   20   24 ar
  41   20   44 1
  42   21   22 ar
  43   21   45 1
  44   22   23 ar
  45   22   46 1
  46   23   24 ar
  47   23   47 1
  48   24   48 1
  49   25   26 1
  50   25   27 1
  51   25   28 1

#	End of record

