#	Name: ASD01883212
#	Creating user name:	WinNT
#	Creation time:	15. 06. 2019 19:46

#	Modifying user name:	WinNT
#	Modification time:	15. 06. 2019 19:46

#	Program:	/corina/corina34_cracker 3.40 0067  02.08.2006

@<TRIPOS>MOLECULE
ASD01883212
  55   57    0    0    0
SMALL
NO_CHARGES


@<TRIPOS>ATOM
   1 N1            -0.0162     1.3417     0.0094 N.am    
   2 C2             0.0021    -0.0041     0.0020 C.2     
   3 C3            -1.2161    -0.7274     0.0098 C.2     
   4 C4            -2.4261    -0.0112     0.0252 C.2     
   5 C5            -2.3786     1.3969     0.0323 C.2     
   6 C6            -1.1851     2.0325     0.0299 C.2     
   7 O7             1.0657    -0.6000    -0.0117 O.2     
   8 C8            -1.2151    -2.1594     0.0016 C.1     
   9 N9            -1.2144    -3.2953    -0.0049 N.1     
  10 C10            1.2513     2.0764     0.0013 C.3     
  11 C11            1.6787     2.3399    -1.4440 C.3     
  12 C12            3.0024     3.1072    -1.4525 C.3     
  13 C13            3.4929     3.2619    -2.8935 C.3     
  14 C14            2.7939     4.4907    -0.8334 C.3     
  15 C15           -3.7219    -0.7213     0.0332 C.ar    
  16 C16           -4.5709    -0.6159     1.1375 C.ar    
  17 C17           -5.7818    -1.2815     1.1401 C.ar    
  18 C18           -6.1536    -2.0559     0.0425 C.ar    
  19 C19           -5.3096    -2.1608    -1.0545 C.ar    
  20 C20           -4.1029    -1.4948    -1.0657 C.ar    
  21 O21           -7.3444    -2.7097     0.0464 O.3     
  22 C22           -7.6625    -3.4854    -1.1108 C.3     
  23 C23           -9.0110    -4.1326    -0.9266 C.ar    
  24 C24          -10.1641    -3.4807    -1.3356 C.ar    
  25 C25          -11.3829    -4.1147    -1.1467 C.ar    
  26 C26          -11.4074    -5.3661    -0.5613 C.ar    
  27 N27          -10.2900    -5.9564    -0.1839 N.ar    
  28 C28           -9.1132    -5.3861    -0.3531 C.ar    
  29 O29           -6.6105    -1.1813     2.2137 O.3     
  30 C30           -6.1654    -0.3712     3.3035 C.3     
  31 H31           -3.2950     1.9683     0.0441 H       
  32 H32           -1.1611     3.1122     0.0358 H       
  33 H33            1.1242     3.0258     0.5214 H       
  34 H34            2.0168     1.4859     0.5046 H       
  35 H35            1.8057     1.3905    -1.9642 H       
  36 H36            0.9132     2.9304    -1.9474 H       
  37 H37            3.7444     2.5579    -0.8731 H       
  38 H38            2.7508     3.8111    -3.4729 H       
  39 H39            4.4359     3.8085    -2.8995 H       
  40 H40            3.6415     2.2762    -3.3345 H       
  41 H41            2.0518     5.0399    -1.4129 H       
  42 H42            2.4444     4.3805     0.1931 H       
  43 H43            3.7369     5.0373    -0.8395 H       
  44 H44           -4.2814    -0.0158     1.9874 H       
  45 H45           -5.6010    -2.7621    -1.9030 H       
  46 H46           -3.4482    -1.5778    -1.9206 H       
  47 H47           -7.6870    -2.8376    -1.9870 H       
  48 H48           -6.9053    -4.2569    -1.2504 H       
  49 H49          -10.1144    -2.5023    -1.7901 H       
  50 H50          -12.3014    -3.6361    -1.4529 H       
  51 H51          -12.3525    -5.8665    -0.4106 H       
  52 H52           -8.2197    -5.9003    -0.0313 H       
  53 H53           -5.2283    -0.7691     3.6930 H       
  54 H54           -6.0102     0.6505     2.9570 H       
  55 H55           -6.9181    -0.3771     4.0918 H       
@<TRIPOS>BOND
   1    1    2 am
   2    1   10 1
   3    1    6 1
   4    2    3 1
   5    2    7 2
   6    3    4 2
   7    3    8 1
   8    4    5 1
   9    4   15 1
  10    5    6 2
  11    5   31 1
  12    6   32 1
  13    8    9 3
  14   10   11 1
  15   10   33 1
  16   10   34 1
  17   11   12 1
  18   11   35 1
  19   11   36 1
  20   12   13 1
  21   12   14 1
  22   12   37 1
  23   13   38 1
  24   13   39 1
  25   13   40 1
  26   14   41 1
  27   14   42 1
  28   14   43 1
  29   15   16 ar
  30   15   20 ar
  31   16   17 ar
  32   16   44 1
  33   17   18 ar
  34   17   29 1
  35   18   19 ar
  36   18   21 1
  37   19   20 ar
  38   19   45 1
  39   20   46 1
  40   21   22 1
  41   22   23 1
  42   22   47 1
  43   22   48 1
  44   23   24 ar
  45   23   28 ar
  46   24   25 ar
  47   24   49 1
  48   25   26 ar
  49   25   50 1
  50   26   27 ar
  51   26   51 1
  52   27   28 ar
  53   28   52 1
  54   29   30 1
  55   30   53 1
  56   30   54 1
  57   30   55 1

#	End of record

