#	Name: ASD08770020
#	Creating user name:	WinNT
#	Creation time:	15. 06. 2019 21:19

#	Modifying user name:	WinNT
#	Modification time:	15. 06. 2019 21:19

#	Program:	/corina/corina34_cracker 3.40 0067  02.08.2006

@<TRIPOS>MOLECULE
ASD08770020
  29   29    0    0    0
SMALL
NO_CHARGES


@<TRIPOS>ATOM
   1 C1            -0.0187     1.5258     0.0104 C.3     
   2 C2             0.0021    -0.0041     0.0020 C.3     
   3 C3             0.7862    -1.8009    -1.3531 C.2     
   4 C4             1.4787    -2.3609    -2.5688 C.3     
   5 O5             0.6817    -0.4723    -1.1926 O.3     
   6 C6             1.4601    -3.8895    -2.5074 C.3     
   7 O7             0.3251    -2.5478    -0.5228 O.2     
   8 C8             2.1525    -4.4495    -3.7231 C.ar    
   9 C9             3.5126    -4.6949    -3.6903 C.ar    
  10 C10            4.1509    -5.2098    -4.8073 C.ar    
  11 O11            5.4887    -5.4521    -4.7765 O.3     
  12 C12            3.4198    -5.4787    -5.9604 C.ar    
  13 O13            4.0416    -5.9845    -7.0590 O.3     
  14 C14            2.0569    -5.2305    -5.9866 C.ar    
  15 C15            1.4253    -4.7220    -4.8669 C.ar    
  16 H16            1.0039     1.9031     0.0027 H       
  17 H17           -0.5459     1.8868    -0.8726 H       
  18 H18           -0.5289     1.8773     0.9072 H       
  19 H19            0.5293    -0.3651     0.8851 H       
  20 H20           -1.0205    -0.3814     0.0098 H       
  21 H21            0.9609    -2.0270    -3.4679 H       
  22 H22            2.5107    -2.0108    -2.5926 H       
  23 H23            1.9779    -4.2234    -1.6083 H       
  24 H24            0.4281    -4.2396    -2.4836 H       
  25 H25            4.0778    -4.4850    -2.7942 H       
  26 H26            5.7204    -6.3424    -4.4782 H       
  27 H27            4.0663    -6.9508    -7.0871 H       
  28 H28            1.4872    -5.4383    -6.8803 H       
  29 H29            0.3620    -4.5334    -4.8870 H       
@<TRIPOS>BOND
   1    1    2 1
   2    1   16 1
   3    1   17 1
   4    1   18 1
   5    2    5 1
   6    2   19 1
   7    2   20 1
   8    3    4 1
   9    3    5 1
  10    3    7 2
  11    4    6 1
  12    4   21 1
  13    4   22 1
  14    6    8 1
  15    6   23 1
  16    6   24 1
  17    8    9 ar
  18    8   15 ar
  19    9   10 ar
  20    9   25 1
  21   10   11 1
  22   10   12 ar
  23   11   26 1
  24   12   13 1
  25   12   14 ar
  26   13   27 1
  27   14   15 ar
  28   14   28 1
  29   15   29 1

#	End of record

