#	Name: ASD04882023
#	Creating user name:	WinNT
#	Creation time:	15. 06. 2019 20:53

#	Modifying user name:	WinNT
#	Modification time:	15. 06. 2019 20:53

#	Program:	/corina/corina34_cracker 3.40 0067  02.08.2006

@<TRIPOS>MOLECULE
ASD04882023
  65   69    0    0    0
SMALL
NO_CHARGES


@<TRIPOS>ATOM
   1 C1             1.7465    -0.7499    -0.2828 C.ar    
   2 C2             1.4452    -1.6921    -1.2488 C.ar    
   3 C3             2.2187    -1.7875    -2.3914 C.ar    
   4 C4             3.2951    -0.9414    -2.5710 C.ar    
   5 C5             3.6007     0.0065    -1.6023 C.ar    
   6 C6             2.8218     0.0996    -0.4561 C.ar    
   7 N7             4.6891     0.8636    -1.7805 N.3     
   8 C8             5.7048     0.6482    -0.7406 C.3     
   9 C9             6.9121     1.5475    -1.0164 C.3     
  10 N10            6.4783     2.9513    -1.0421 N.3     
  11 C11            5.4625     3.1667    -2.0820 C.3     
  12 C12            4.2552     2.2674    -1.8062 C.3     
  13 C13            7.5633     3.8058    -1.2198 C.ar    
  14 C14            7.6802     4.5448    -2.3910 C.ar    
  15 C15            8.7520     5.3913    -2.5710 C.ar    
  16 C16            9.7256     5.5090    -1.5756 C.ar    
  17 C17            9.6103     4.7668    -0.3964 C.ar    
  18 C18            8.5306     3.9235    -0.2173 C.ar    
  19 N19            8.4114     3.1779     0.9631 N.am    
  20 C20            9.5089     2.8831     1.6876 C.2     
  21 C21            9.3726     2.2042     2.9884 C.2     
  22 O22           10.6119     3.1774     1.2678 O.2     
  23 C23            8.2165     1.8093     3.5954 C.2     
  24 C24           10.4546     1.8051     3.9003 C.2     
  25 C25            9.8559     1.2239     4.9511 C.2     
  26 O26            8.5275     1.2315     4.7599 O.3     
  27 C27           10.8738     6.4149    -1.7690 C.2     
  28 N28           11.3654     7.1120    -0.7254 N.am    
  29 O29           11.3767     6.5327    -2.8698 O.2     
  30 C30           12.4527     8.0896    -0.9010 C.3     
  31 C31            4.1376    -1.0464    -3.8160 C.3     
  32 C32           10.8336     6.9318     0.6336 C.3     
  33 C33           10.6858     8.2813     1.2818 C.2     
  34 N34           11.2239     9.3927     0.7775 N.am    
  35 C35           11.9283     9.4663    -0.4884 C.3     
  36 O36           10.0475     8.3625     2.3098 O.2     
  37 H37            1.1378    -0.6751     0.6061 H       
  38 H38            0.6040    -2.3553    -1.1107 H       
  39 H39            1.9808    -2.5248    -3.1438 H       
  40 H40            3.0567     0.8353     0.2988 H       
  41 H41            5.2843     0.8930     0.2348 H       
  42 H42            6.0191    -0.3955    -0.7498 H       
  43 H43            7.6547     1.4107    -0.2303 H       
  44 H44            7.3491     1.2843    -1.9797 H       
  45 H45            5.1482     4.2104    -2.0728 H       
  46 H46            5.8830     2.9219    -3.0574 H       
  47 H47            3.5127     2.4042    -2.5923 H       
  48 H48            3.8182     2.5306    -0.8429 H       
  49 H49            6.9292     4.4548    -3.1620 H       
  50 H50            8.8400     5.9642    -3.4823 H       
  51 H51           10.3613     4.8558     0.3746 H       
  52 H52            7.5390     2.8739     1.2587 H       
  53 H53            7.2193     1.9413     3.2021 H       
  54 H54           11.5149     1.9499     3.7542 H       
  55 H55           10.3623     0.8130     5.8119 H       
  56 H56           13.2994     7.8148    -0.2719 H       
  57 H57           12.7621     8.1119    -1.9459 H       
  58 H58            3.6803    -0.4623    -4.6146 H       
  59 H59            5.1372    -0.6626    -3.6117 H       
  60 H60            4.2049    -2.0904    -4.1222 H       
  61 H61            9.8609     6.4425     0.5832 H       
  62 H62           11.5220     6.3201     1.2169 H       
  63 H63           11.1348    10.2104     1.2917 H       
  64 H64           12.7710    10.1507    -0.3908 H       
  65 H65           11.2500     9.8405    -1.2552 H       
@<TRIPOS>BOND
   1    1    2 ar
   2    1    6 ar
   3    1   37 1
   4    2    3 ar
   5    2   38 1
   6    3    4 ar
   7    3   39 1
   8    4    5 ar
   9    4   31 1
  10    5    6 ar
  11    5    7 1
  12    6   40 1
  13    7    8 1
  14    7   12 1
  15    8    9 1
  16    8   41 1
  17    8   42 1
  18    9   10 1
  19    9   43 1
  20    9   44 1
  21   10   11 1
  22   10   13 1
  23   11   12 1
  24   11   45 1
  25   11   46 1
  26   12   47 1
  27   12   48 1
  28   13   14 ar
  29   13   18 ar
  30   14   15 ar
  31   14   49 1
  32   15   16 ar
  33   15   50 1
  34   16   17 ar
  35   16   27 1
  36   17   18 ar
  37   17   51 1
  38   18   19 1
  39   19   20 am
  40   19   52 1
  41   20   21 1
  42   20   22 2
  43   21   23 2
  44   21   24 1
  45   23   26 1
  46   23   53 1
  47   24   25 2
  48   24   54 1
  49   25   26 1
  50   25   55 1
  51   27   28 am
  52   27   29 2
  53   28   30 1
  54   28   32 1
  55   30   35 1
  56   30   56 1
  57   30   57 1
  58   31   58 1
  59   31   59 1
  60   31   60 1
  61   32   33 1
  62   32   61 1
  63   32   62 1
  64   33   34 am
  65   33   36 2
  66   34   35 1
  67   34   63 1
  68   35   64 1
  69   35   65 1

#	End of record

