#	Name: ASD03240416
#	Creating user name:	WinNT
#	Creation time:	15. 06. 2019 20:34

#	Modifying user name:	WinNT
#	Modification time:	15. 06. 2019 20:34

#	Program:	/corina/corina34_cracker 3.40 0067  02.08.2006

@<TRIPOS>MOLECULE
ASD03240416
  47   50    0    0    0
SMALL
NO_CHARGES


@<TRIPOS>ATOM
   1 C1            -0.0652     1.4706    -0.0590 C.ar    
   2 C2            -0.3954     0.5097     0.8803 C.ar    
   3 C3             2.5119     0.3879    -1.2826 C.ar    
   4 C4             2.1173     1.7090    -1.1725 C.ar    
   5 C5             1.2800     2.1472     0.0014 C.3     
   6 C6             3.2788    -0.0187    -2.3558 C.ar    
   7 C7             3.6552     0.9040    -3.3290 C.ar    
   8 C8             3.2555     2.2334    -3.2131 C.ar    
   9 C9             2.4887     2.6294    -2.1359 C.ar    
  10 C10            4.4805     0.4724    -4.4854 C.2     
  11 C11           -1.6249    -0.1140     0.8307 C.ar    
  12 C12           -2.5368     0.2265    -0.1703 C.ar    
  13 C13           -2.1970     1.1970    -1.1149 C.ar    
  14 C14           -0.9621     1.8090    -1.0567 C.ar    
  15 C15            4.9176     1.2665    -5.5050 C.2     
  16 N16            5.6325     0.4931    -6.3468 N.pl3   
  17 N17            5.6413    -0.8123    -5.8406 N.2     
  18 C18            4.9596    -0.8300    -4.7259 C.2     
  19 C19            1.0913     3.6661    -0.0433 C.3     
  20 C20            0.2924     4.1122     1.1833 C.3     
  21 N21            1.0111     3.7260     2.4042 N.3     
  22 C22            1.1627     2.2681     2.4925 C.3     
  23 C23            1.9869     1.7654     1.3049 C.3     
  24 C24           -3.8551    -0.4375    -0.2300 C.2     
  25 O25           -4.1478    -1.2817     0.5928 O.2     
  26 O26           -4.7327    -0.1068    -1.1971 O.3     
  27 H27            0.3111     0.2471     1.6538 H       
  28 H28            2.2233    -0.3258    -0.5251 H       
  29 H29            3.5867    -1.0504    -2.4406 H       
  30 H30            3.5447     2.9528    -3.9649 H       
  31 H31            2.1779     3.6598    -2.0452 H       
  32 H32           -1.8813    -0.8640     1.5641 H       
  33 H33           -2.8977     1.4647    -1.8920 H       
  34 H34           -0.6979     2.5598    -1.7867 H       
  35 H35            4.7257     2.3234    -5.6176 H       
  36 H36            6.0657     0.7897    -7.1624 H       
  37 H37            4.7874    -1.6943    -4.1016 H       
  38 H38            2.0659     4.1541    -0.0401 H       
  39 H39            0.5500     3.9390    -0.9492 H       
  40 H40            0.1685     5.1950     1.1619 H       
  41 H41           -0.6873     3.6345     1.1721 H       
  42 H42            1.9073     4.1866     2.4572 H       
  43 H43            1.6710     2.0114     3.4219 H       
  44 H44            0.1790     1.7990     2.4751 H       
  45 H45            2.0854     0.6815     1.3631 H       
  46 H46            2.9759     2.2231     1.3285 H       
  47 H47           -5.5825    -0.5683    -1.1953 H       
@<TRIPOS>BOND
   1    1    2 ar
   2    1    5 1
   3    1   14 ar
   4    2   11 ar
   5    2   27 1
   6    3    4 ar
   7    3    6 ar
   8    3   28 1
   9    4    5 1
  10    4    9 ar
  11    5   19 1
  12    5   23 1
  13    6    7 ar
  14    6   29 1
  15    7    8 ar
  16    7   10 1
  17    8    9 ar
  18    8   30 1
  19    9   31 1
  20   10   15 2
  21   10   18 1
  22   11   12 ar
  23   11   32 1
  24   12   13 ar
  25   12   24 1
  26   13   14 ar
  27   13   33 1
  28   14   34 1
  29   15   16 1
  30   15   35 1
  31   16   17 1
  32   16   36 1
  33   17   18 2
  34   18   37 1
  35   19   20 1
  36   19   38 1
  37   19   39 1
  38   20   21 1
  39   20   40 1
  40   20   41 1
  41   21   22 1
  42   21   42 1
  43   22   23 1
  44   22   43 1
  45   22   44 1
  46   23   45 1
  47   23   46 1
  48   24   25 2
  49   24   26 1
  50   26   47 1

#	End of record

