#	Name: ASD07930126
#	Creating user name:	WinNT
#	Creation time:	15. 06. 2019 21:11

#	Modifying user name:	WinNT
#	Modification time:	15. 06. 2019 21:11

#	Program:	/corina/corina34_cracker 3.40 0067  02.08.2006

@<TRIPOS>MOLECULE
ASD07930126
  62   65    0    0    0
SMALL
NO_CHARGES


@<TRIPOS>ATOM
   1 C1            -0.9417     1.8562     0.9011 C.2     
   2 C2            -0.5633     0.4304     0.7859 C.2     
   3 N3            -0.0246     2.8135     0.5304 N.am    
   4 N4             0.7522     0.1084     0.7614 N.am    
   5 C5             1.7459     1.1842     0.8857 C.3     
   6 C6             1.2853     2.3743     0.0309 C.3     
   7 C7            -2.1742     2.2071     1.3593 C.2     
   8 C8            -2.5361     3.5553     1.4719 C.2     
   9 C9            -1.6389     4.5254     1.1178 C.2     
  10 C10           -0.3209     4.1216     0.6220 C.2     
  11 O11           -1.4153    -0.4341     0.7152 O.2     
  12 O12            0.4989     4.9632     0.2958 O.2     
  13 C13           -1.4043     6.7920     2.0489 C.2     
  14 N14           -1.9855     7.9450     1.8590 N.2     
  15 C15           -2.9345     7.8152     0.9197 C.2     
  16 C16           -2.9463     6.5334     0.5077 C.2     
  17 N17           -1.9760     5.8779     1.2216 N.pl3   
  18 C18           -3.8327     8.9143     0.4135 C.3     
  19 C19            1.1766    -1.2860     0.6133 C.3     
  20 C20            0.7975    -1.7891    -0.7810 C.3     
  21 C21            0.4825    -2.1455     1.6717 C.3     
  22 O22           -0.6258    -1.8345    -0.9004 O.3     
  23 C23           -1.1336    -2.1006    -2.1330 C.ar    
  24 C24           -1.7280    -3.3277    -2.3890 C.ar    
  25 C25           -2.2439    -3.5966    -3.6417 C.ar    
  26 C26           -2.1678    -2.6421    -4.6421 C.ar    
  27 C27           -1.5750    -1.4172    -4.3881 C.ar    
  28 C28           -1.0631    -1.1434    -3.1342 C.ar    
  29 Si29          -1.8299    -4.6160    -1.0402 Si      
  30 C30           -3.2882    -4.2496     0.0597 C.3     
  31 C31           -2.0375    -6.3017    -1.8059 C.3     
  32 C32           -0.2654    -4.5817    -0.0291 C.3     
  33 F33           -2.6720    -2.9067    -5.8672 F       
  34 H34            1.8248     1.4912     1.9286 H       
  35 H35            2.7142     0.8313     0.5307 H       
  36 H36            1.1979     2.0671    -1.0113 H       
  37 H37            2.0042     3.1892     0.1163 H       
  38 H38           -2.8799     1.4387     1.6384 H       
  39 H39           -3.5162     3.8270     1.8352 H       
  40 H40           -0.6005     6.5979     2.7437 H       
  41 H41           -3.5952     6.1039    -0.2412 H       
  42 H42           -3.3605     9.4069    -0.4365 H       
  43 H43           -4.7872     8.4894     0.1028 H       
  44 H44           -4.0002     9.6416     1.2079 H       
  45 H45            2.2568    -1.3527     0.7423 H       
  46 H46            1.2039    -1.1137    -1.5339 H       
  47 H47            1.2067    -2.7882    -0.9305 H       
  48 H48           -0.5923    -2.1478     1.4903 H       
  49 H49            0.8623    -3.1658     1.6175 H       
  50 H50            0.6830    -1.7353     2.6615 H       
  51 H51           -2.7067    -4.5518    -3.8412 H       
  52 H52           -1.5162    -0.6737    -5.1692 H       
  53 H53           -0.6044    -0.1862    -2.9351 H       
  54 H54           -4.2035    -4.2697    -0.5318 H       
  55 H55           -3.3477    -5.0014     0.8467 H       
  56 H56           -3.1667    -3.2634     0.5077 H       
  57 H57           -1.1843    -6.5160    -2.4494 H       
  58 H58           -2.0970    -7.0534    -1.0188 H       
  59 H59           -2.9528    -6.3218    -2.3974 H       
  60 H60           -0.1594    -3.6050     0.4431 H       
  61 H61           -0.3123    -5.3535     0.7391 H       
  62 H62            0.5907    -4.7664    -0.6780 H       
@<TRIPOS>BOND
   1    1    2 1
   2    1    3 1
   3    1    7 2
   4    2    4 am
   5    2   11 2
   6    3    6 1
   7    3   10 am
   8    4    5 1
   9    4   19 1
  10    5    6 1
  11    5   34 1
  12    5   35 1
  13    6   36 1
  14    6   37 1
  15    7    8 1
  16    7   38 1
  17    8    9 2
  18    8   39 1
  19    9   10 1
  20    9   17 1
  21   10   12 2
  22   13   14 2
  23   13   17 1
  24   13   40 1
  25   14   15 1
  26   15   16 2
  27   15   18 1
  28   16   17 1
  29   16   41 1
  30   18   42 1
  31   18   43 1
  32   18   44 1
  33   19   20 1
  34   19   21 1
  35   19   45 1
  36   20   22 1
  37   20   46 1
  38   20   47 1
  39   21   48 1
  40   21   49 1
  41   21   50 1
  42   22   23 1
  43   23   24 ar
  44   23   28 ar
  45   24   25 ar
  46   24   29 1
  47   25   26 ar
  48   25   51 1
  49   26   27 ar
  50   26   33 1
  51   27   28 ar
  52   27   52 1
  53   28   53 1
  54   29   30 1
  55   29   31 1
  56   29   32 1
  57   30   54 1
  58   30   55 1
  59   30   56 1
  60   31   57 1
  61   31   58 1
  62   31   59 1
  63   32   60 1
  64   32   61 1
  65   32   62 1

#	End of record

