#	Name: ASD07300635
#	Creating user name:	WinNT
#	Creation time:	15. 06. 2019 21:10

#	Modifying user name:	WinNT
#	Modification time:	15. 06. 2019 21:10

#	Program:	/corina/corina34_cracker 3.40 0067  02.08.2006

@<TRIPOS>MOLECULE
ASD07300635
  26   28    0    0    0
SMALL
NO_CHARGES


@<TRIPOS>ATOM
   1 C1            -0.0172     1.4148     0.0098 C.2     
   2 C2             0.0021    -0.0041     0.0020 C.2     
   3 N3             1.1782     2.0905     0.0020 N.pl3   
   4 N4             1.1598    -0.6382    -0.0124 N.2     
   5 C5             2.3132     0.0285    -0.0199 C.2     
   6 C6             2.3457     1.3799    -0.0125 C.2     
   7 N7            -0.9911     2.3066     0.0292 N.2     
   8 C8            -0.4627     3.5319     0.0277 C.2     
   9 C9             0.8865     3.4199     0.0119 C.2     
  10 C10           -2.4697    -2.8380     0.0114 C.ar    
  11 C11           -1.2644    -2.1666     0.0030 C.ar    
  12 C12           -1.2671    -0.7677     0.0105 C.ar    
  13 C13           -2.5016    -0.1100     0.0268 C.ar    
  14 C14           -3.6594    -0.8604     0.0347 C.ar    
  15 N15           -3.6122    -2.1787     0.0267 N.ar    
  16 C16           -1.2380     4.8241     0.0462 C.3     
  17 H17            3.2421    -0.5225    -0.0313 H       
  18 H18            3.2935     1.8977    -0.0191 H       
  19 H19            1.5976     4.2328     0.0095 H       
  20 H20           -2.4780    -3.9179     0.0011 H       
  21 H21           -0.3327    -2.7128    -0.0092 H       
  22 H22           -2.5477     0.9690     0.0334 H       
  23 H23           -4.6174    -0.3618     0.0472 H       
  24 H24           -1.4091     5.1305     1.0782 H       
  25 H25           -0.6697     5.5962    -0.4725 H       
  26 H26           -2.1959     4.6803    -0.4537 H       
@<TRIPOS>BOND
   1    1    2 1
   2    1    3 1
   3    1    7 2
   4    2    4 2
   5    2   12 1
   6    3    6 1
   7    3    9 1
   8    4    5 1
   9    5    6 2
  10    5   17 1
  11    6   18 1
  12    7    8 1
  13    8    9 2
  14    8   16 1
  15    9   19 1
  16   10   11 ar
  17   10   15 ar
  18   10   20 1
  19   11   12 ar
  20   11   21 1
  21   12   13 ar
  22   13   14 ar
  23   13   22 1
  24   14   15 ar
  25   14   23 1
  26   16   24 1
  27   16   25 1
  28   16   26 1

#	End of record

