#	Name: ASD02508022
#	Creating user name:	WinNT
#	Creation time:	15. 06. 2019 20:23

#	Modifying user name:	WinNT
#	Modification time:	15. 06. 2019 20:23

#	Program:	/corina/corina34_cracker 3.40 0067  02.08.2006

@<TRIPOS>MOLECULE
ASD02508022
  55   58    0    0    0
SMALL
NO_CHARGES


@<TRIPOS>ATOM
   1 C1            -0.4133     0.9390     0.4105 C.3     
   2 C2            -0.1060    -0.4969     0.5036 C.3     
   3 C3             0.9788    -0.7827     1.5557 C.3     
   4 N4             2.2511    -0.4538     0.9801 N.am    
   5 C5             2.8804     0.8828     1.1622 C.3     
   6 C6             1.7906     1.9803     1.0815 C.3     
   7 N7             0.8082     1.7064     0.0703 N.am    
   8 C8             0.8526     4.9651    -1.2735 C.ar    
   9 C9             0.2041     3.7921    -1.6207 C.ar    
  10 C10            0.1969     6.1784    -1.3860 C.ar    
  11 C11           -1.1107     6.2192    -1.8470 C.ar    
  12 C12           -1.7592     5.0434    -2.1946 C.ar    
  13 C13           -1.1011     3.8314    -2.0810 C.ar    
  14 C14            3.4020    -0.3776    -2.3295 C.ar    
  15 C15            2.6617    -1.2948    -1.6081 C.ar    
  16 C16            3.1021    -0.1366    -3.6621 C.ar    
  17 C17            2.0572    -0.8220    -4.2701 C.ar    
  18 C18            1.3176    -1.7407    -3.5402 C.ar    
  19 C19            1.6208    -1.9750    -2.2124 C.ar    
  20 F20           -1.7324     2.6860    -2.4199 F       
  21 F21            2.1243     4.9244    -0.8192 F       
  22 O22            1.7508    -0.6064    -5.5786 O.3     
  23 O23            3.8353     0.7749    -4.3578 O.3     
  24 C24            3.7477     0.7166    -5.7857 C.3     
  25 C25            2.2679     0.5897    -6.1718 C.3     
  26 S26            3.0454    -1.5982     0.0846 S.o2    
  27 O27            4.4333    -1.3333     0.2352 O.2     
  28 O28            2.4524    -2.8472     0.4128 O.2     
  29 O29           -1.7559     7.4101    -1.9576 O.3     
  30 C30           -3.1009     7.3769    -2.4393 C.3     
  31 S31            1.0407     2.2480    -1.4773 S.o2    
  32 O32            2.4280     2.5305    -1.5994 O.2     
  33 O33            0.3548     1.3395    -2.3277 O.2     
  34 H34           -1.1657     1.0975    -0.3622 H       
  35 H35           -0.8034     1.2872     1.3669 H       
  36 H36           -1.0133    -1.0374     0.7733 H       
  37 H37            0.2401    -0.8496    -0.4679 H       
  38 H38            0.8050    -0.1699     2.4402 H       
  39 H39            0.9592    -1.8380     1.8280 H       
  40 H40            3.3678     0.9255     2.1362 H       
  41 H41            3.6197     1.0464     0.3781 H       
  42 H42            1.2913     2.0531     2.0477 H       
  43 H43            2.2674     2.9352     0.8604 H       
  44 H44            0.7029     7.0932    -1.1147 H       
  45 H45           -2.7774     5.0737    -2.5533 H       
  46 H46            4.2121     0.1554    -1.8539 H       
  47 H47            0.5038    -2.2732    -4.0098 H       
  48 H48            1.0438    -2.6910    -1.6459 H       
  49 H49            4.1633     1.6273    -6.2169 H       
  50 H50            4.2989    -0.1493    -6.1526 H       
  51 H51            2.1746     0.5323    -7.2563 H       
  52 H52            1.7157     1.4528    -5.8000 H       
  53 H53           -3.1185     6.9404    -3.4379 H       
  54 H54           -3.7124     6.7737    -1.7683 H       
  55 H55           -3.4977     8.3913    -2.4792 H       
@<TRIPOS>BOND
   1    1    2 1
   2    1    7 1
   3    1   34 1
   4    1   35 1
   5    2    3 1
   6    2   36 1
   7    2   37 1
   8    3    4 1
   9    3   38 1
  10    3   39 1
  11    4    5 1
  12    4   26 am
  13    5    6 1
  14    5   40 1
  15    5   41 1
  16    6    7 1
  17    6   42 1
  18    6   43 1
  19    7   31 am
  20    8    9 ar
  21    8   10 ar
  22    8   21 1
  23    9   31 1
  24    9   13 ar
  25   10   11 ar
  26   10   44 1
  27   11   12 ar
  28   11   29 1
  29   12   13 ar
  30   12   45 1
  31   13   20 1
  32   14   15 ar
  33   14   16 ar
  34   14   46 1
  35   15   26 1
  36   15   19 ar
  37   16   17 ar
  38   16   23 1
  39   17   18 ar
  40   17   22 1
  41   18   19 ar
  42   18   47 1
  43   19   48 1
  44   22   25 1
  45   23   24 1
  46   24   25 1
  47   24   49 1
  48   24   50 1
  49   25   51 1
  50   25   52 1
  51   26   27 2
  52   26   28 2
  53   29   30 1
  54   30   53 1
  55   30   54 1
  56   30   55 1
  57   31   32 2
  58   31   33 2

#	End of record

