#	Name: ASD05143088
#	Creating user name:	WinNT
#	Creation time:	15. 06. 2019 20:57

#	Modifying user name:	WinNT
#	Modification time:	15. 06. 2019 20:57

#	Program:	/corina/corina34_cracker 3.40 0067  02.08.2006

@<TRIPOS>MOLECULE
ASD05143088
 144  147    0    0    0
SMALL
NO_CHARGES


@<TRIPOS>ATOM
   1 C1            -2.1056     5.3971     7.5329 C.2     
   2 C2            -1.6202     4.6591     8.7538 C.3     
   3 N3            -1.2178     5.9331     6.6721 N.am    
   4 O4            -3.2952     5.5044     7.3222 O.2     
   5 C5            -1.6897     6.6506     5.4852 C.3     
   6 C6            -2.5232     5.7065     4.6164 C.3     
   7 C7            -2.5374     7.8218     5.9102 C.2     
   8 C8            -1.6312     4.5838     4.0826 C.3     
   9 C9            -2.4647     3.6396     3.2138 C.3     
  10 N10           -1.6106     2.5646     2.7028 N.pl3   
  11 C11           -2.1433     1.5898     1.8927 C.2     
  12 N12           -1.3418     0.5809     1.4131 N.pl3   
  13 N13           -3.4080     1.6221     1.5793 N.2     
  14 O14           -3.0301     7.8434     7.0182 O.2     
  15 N15           -2.7480     8.8454     5.0591 N.am    
  16 C16           -3.5721     9.9840     5.4723 C.3     
  17 C17           -2.6692    11.1751     5.7991 C.3     
  18 C18           -1.5131    10.7110     6.6872 C.3     
  19 C19           -0.3720    10.2412     5.8224 C.2     
  20 N20            0.8951    10.6537     6.1240 N.am    
  21 C21            1.9584    10.1420     5.2295 C.3     
  22 C22            2.1087    11.1021     4.0478 C.3     
  23 C23            2.7721    10.3711     2.8788 C.3     
  24 C24            3.7306    11.3224     2.1595 C.3     
  25 N25            3.6790    11.0447     0.7101 N.am    
  26 C26            5.1331    11.1044     2.6659 C.2     
  27 N27            5.5207    11.6533     3.8343 N.am    
  28 O28            5.9131    10.4350     2.0221 O.2     
  29 C29            2.8529    11.8326    -0.0310 C.2     
  30 O30            2.2090    12.7145     0.4967 O.2     
  31 C31            2.7487    11.5955    -1.5156 C.3     
  32 N32            1.5340    12.2780    -2.0177 N.am    
  33 C33            3.9845    12.1653    -2.2149 C.3     
  34 C34            0.4809    11.4583    -2.3104 C.2     
  35 O35            0.5725    10.2580    -2.1628 O.2     
  36 C36           -0.7968    12.0740    -2.8199 C.3     
  37 N37           -1.9236    11.1810    -2.4837 N.am    
  38 C38           -1.0082    13.4373    -2.1585 C.3     
  39 C39           -3.0283    11.7694    -1.9478 C.2     
  40 O40           -3.0577    12.9674    -1.7609 O.2     
  41 C41           -4.2140    10.9107    -1.5906 C.3     
  42 C42            3.9364    11.8193    -3.6808 C.2     
  43 C43            3.2381    12.5660    -4.7300 C.ar    
  44 C44            3.4760    11.8680    -5.9279 C.ar    
  45 N45            4.2612    10.7809    -5.6155 N.pl3   
  46 C46            4.5301    10.7715    -4.2739 C.2     
  47 C47            2.4613    13.7262    -4.7422 C.ar    
  48 C48            1.9355    14.1781    -5.9195 C.ar    
  49 C49            2.1670    13.4925    -7.1043 C.ar    
  50 C50            2.9311    12.3464    -7.1152 C.ar    
  51 N51           -4.7997    11.4125    -0.3266 N.am    
  52 C52           -3.7608     9.4610    -1.4063 C.3     
  53 C53           -4.9593     8.5921    -1.1237 C.ar    
  54 C54           -5.9882     8.5147    -2.0432 C.ar    
  55 C55           -7.0899     7.7166    -1.7847 C.ar    
  56 C56           -7.1605     6.9963    -0.6048 C.ar    
  57 C57           -6.1295     7.0747     0.3154 C.ar    
  58 C58           -5.0261     7.8690     0.0522 C.ar    
  59 C59           -4.5103    10.3574     4.3535 C.2     
  60 O60           -5.7087    10.2255     4.4858 O.2     
  61 C61           -1.0184    13.2703    -0.6377 C.3     
  62 C62           -1.3765    14.6048     0.0195 C.3     
  63 N63           -1.3863    14.4449     1.4758 N.pl3   
  64 C64           -1.6836    15.5173     2.2831 C.2     
  65 N65           -1.9718    16.7397     1.7238 N.pl3   
  66 N66           -1.6923    15.3750     3.5787 N.2     
  67 N67           -3.9934    10.8443     3.1921 N.am    
  68 C68           -4.9611    11.1932     2.1328 C.3     
  69 C69           -4.4064    10.7521     0.8028 C.2     
  70 O70           -3.6250     9.8270     0.7363 O.2     
  71 C71           -5.1828    12.7070     2.1191 C.3     
  72 C72           -5.8361    13.1306     3.4094 C.2     
  73 O73           -6.0985    12.3032     4.2565 O.2     
  74 N74           -6.1287    14.4289     3.6221 N.am    
  75 F75           -8.0958     7.6415    -2.6835 F       
  76 F76           -6.1972     6.3725     1.4676 F       
  77 O77           -0.5746     9.5099     4.8762 O.2     
  78 H78           -0.5303     4.6625     8.7710 H       
  79 H79           -1.9992     5.1503     9.6499 H       
  80 H80           -1.9799     3.6306     8.7235 H       
  81 H81           -0.2663     5.8438     6.8385 H       
  82 H82           -0.8339     7.0099     4.9137 H       
  83 H83           -3.3279     5.2782     5.2139 H       
  84 H84           -2.9476     6.2620     3.7801 H       
  85 H85           -0.8265     5.0120     3.4851 H       
  86 H86           -1.2068     4.0283     4.9189 H       
  87 H87           -3.2694     3.2114     3.8114 H       
  88 H88           -2.8891     4.1951     2.3775 H       
  89 H89           -0.6694     2.5406     2.9359 H       
  90 H90           -0.4005     0.5569     1.6462 H       
  91 H91           -1.7175    -0.1068     0.8415 H       
  92 H92           -3.7838     0.9343     1.0078 H       
  93 H93           -2.3539     8.8281     4.1729 H       
  94 H94           -4.1498     9.7127     6.3558 H       
  95 H95           -2.2716    11.5940     4.8747 H       
  96 H96           -3.2472    11.9359     6.3235 H       
  97 H97           -1.1787    11.5400     7.3109 H       
  98 H98           -1.8491     9.8912     7.3221 H       
  99 H99            1.0850    11.2413     6.8721 H       
 100 H100           2.8998    10.0846     5.7761 H       
 101 H101           1.6841     9.1524     4.8642 H       
 102 H102           1.1251    11.4589     3.7422 H       
 103 H103           2.7268    11.9495     4.3443 H       
 104 H104           3.3274     9.5122     3.2555 H       
 105 H105           2.0065    10.0311     2.1814 H       
 106 H106           3.4294    12.3535     2.3448 H       
 107 H107           4.2064    10.3373     0.3071 H       
 108 H108           4.8969    12.1887     4.3492 H       
 109 H109           6.4234    11.5130     4.1602 H       
 110 H110           2.6747    10.5257    -1.7111 H       
 111 H111           1.4893    13.2403    -2.1311 H       
 112 H112           4.0010    13.2489    -2.0977 H       
 113 H113           4.8831    11.7380    -1.7700 H       
 114 H114          -0.7376    12.1959    -3.9014 H       
 115 H115          -1.8790    10.2242    -2.6365 H       
 116 H116          -0.1992    14.1094    -2.4448 H       
 117 H117          -1.9605    13.8556    -2.4845 H       
 118 H118          -4.9578    10.9654    -2.3854 H       
 119 H119           4.5795    10.1220    -6.2522 H       
 120 H120           5.1253    10.0270    -3.7660 H       
 121 H121           2.2765    14.2643    -3.8242 H       
 122 H122           1.3348    15.0755    -5.9284 H       
 123 H123           1.7444    13.8620    -8.0270 H       
 124 H124           3.1057    11.8204    -8.0421 H       
 125 H125          -5.4193    12.1584    -0.3022 H       
 126 H126          -3.2681     9.1159    -2.3153 H       
 127 H127          -3.0639     9.4016    -0.5703 H       
 128 H128          -5.9331     9.0770    -2.9636 H       
 129 H129          -8.0196     6.3740    -0.4021 H       
 130 H130          -4.2215     7.9302     0.7700 H       
 131 H131          -1.7571    12.5186    -0.3596 H       
 132 H132          -0.0319    12.9524    -0.3004 H       
 133 H133          -0.6378    15.3565    -0.2585 H       
 134 H134          -2.3631    14.9227    -0.3177 H       
 135 H135          -1.1829    13.5824     1.8703 H       
 136 H136          -1.9654    16.8456     0.7596 H       
 137 H137          -2.1816    17.4963     2.2934 H       
 138 H138          -1.9021    16.1316     4.1483 H       
 139 H139          -3.0381    10.9567     3.0669 H       
 140 H140          -5.9071    10.6852     2.3205 H       
 141 H141          -4.2235    13.2137     2.0141 H       
 142 H142          -5.8275    12.9722     1.2813 H       
 143 H143          -5.9188    15.0906     2.9446 H       
 144 H144          -6.5492    14.7016     4.4526 H       
@<TRIPOS>BOND
   1    1    2 1
   2    1    3 am
   3    1    4 2
   4    2   78 1
   5    2   79 1
   6    2   80 1
   7    3    5 1
   8    3   81 1
   9    5    6 1
  10    5    7 1
  11    5   82 1
  12    6    8 1
  13    6   83 1
  14    6   84 1
  15    7   14 2
  16    7   15 am
  17    8    9 1
  18    8   85 1
  19    8   86 1
  20    9   10 1
  21    9   87 1
  22    9   88 1
  23   10   11 1
  24   10   89 1
  25   11   12 1
  26   11   13 2
  27   12   90 1
  28   12   91 1
  29   13   92 1
  30   15   16 1
  31   15   93 1
  32   16   17 1
  33   16   59 1
  34   16   94 1
  35   17   18 1
  36   17   95 1
  37   17   96 1
  38   18   19 1
  39   18   97 1
  40   18   98 1
  41   19   20 am
  42   19   77 2
  43   20   21 1
  44   20   99 1
  45   21   22 1
  46   21  100 1
  47   21  101 1
  48   22   23 1
  49   22  102 1
  50   22  103 1
  51   23   24 1
  52   23  104 1
  53   23  105 1
  54   24   25 1
  55   24   26 1
  56   24  106 1
  57   25   29 am
  58   25  107 1
  59   26   27 am
  60   26   28 2
  61   27  108 1
  62   27  109 1
  63   29   30 2
  64   29   31 1
  65   31   32 1
  66   31   33 1
  67   31  110 1
  68   32   34 am
  69   32  111 1
  70   33   42 1
  71   33  112 1
  72   33  113 1
  73   34   35 2
  74   34   36 1
  75   36   37 1
  76   36   38 1
  77   36  114 1
  78   37   39 am
  79   37  115 1
  80   38   61 1
  81   38  116 1
  82   38  117 1
  83   39   40 2
  84   39   41 1
  85   41   51 1
  86   41   52 1
  87   41  118 1
  88   42   43 1
  89   42   46 2
  90   43   44 ar
  91   43   47 ar
  92   44   45 1
  93   44   50 ar
  94   45   46 1
  95   45  119 1
  96   46  120 1
  97   47   48 ar
  98   47  121 1
  99   48   49 ar
 100   48  122 1
 101   49   50 ar
 102   49  123 1
 103   50  124 1
 104   51   69 am
 105   51  125 1
 106   52   53 1
 107   52  126 1
 108   52  127 1
 109   53   54 ar
 110   53   58 ar
 111   54   55 ar
 112   54  128 1
 113   55   56 ar
 114   55   75 1
 115   56   57 ar
 116   56  129 1
 117   57   58 ar
 118   57   76 1
 119   58  130 1
 120   59   60 2
 121   59   67 am
 122   61   62 1
 123   61  131 1
 124   61  132 1
 125   62   63 1
 126   62  133 1
 127   62  134 1
 128   63   64 1
 129   63  135 1
 130   64   65 1
 131   64   66 2
 132   65  136 1
 133   65  137 1
 134   66  138 1
 135   67   68 1
 136   67  139 1
 137   68   69 1
 138   68   71 1
 139   68  140 1
 140   69   70 2
 141   71   72 1
 142   71  141 1
 143   71  142 1
 144   72   73 2
 145   72   74 am
 146   74  143 1
 147   74  144 1

#	End of record

