#	Name: ASD05490257
#	Creating user name:	WinNT
#	Creation time:	15. 06. 2019 21:01

#	Modifying user name:	WinNT
#	Modification time:	15. 06. 2019 21:01

#	Program:	/corina/corina34_cracker 3.40 0067  02.08.2006

@<TRIPOS>MOLECULE
ASD05490257
  60   63    0    0    0
SMALL
NO_CHARGES


@<TRIPOS>ATOM
   1 N1            -0.0159     1.3208     0.0093 N.ar    
   2 C2             0.0021    -0.0041     0.0020 C.ar    
   3 C3             1.1982    -0.7014    -0.0131 C.ar    
   4 C4             2.3959     0.0107    -0.0207 C.ar    
   5 C5             2.3436     1.4061    -0.0128 C.ar    
   6 C6             1.0983     2.0368     0.0025 C.ar    
   7 N7             3.6123    -0.6549    -0.0355 N.am    
   8 C8             3.6462    -2.1195    -0.0436 C.3     
   9 C9             3.6448    -2.6140    -1.4672 C.ar    
  10 C10            4.8407    -2.8131    -2.1308 C.ar    
  11 C11            4.8394    -3.2668    -3.4368 C.ar    
  12 C12            3.6422    -3.5217    -4.0786 C.ar    
  13 C13            2.4459    -3.3234    -3.4145 C.ar    
  14 C14            2.4473    -2.8740    -2.1075 C.ar    
  15 N15            1.0272     3.4259     0.0102 N.pl3   
  16 O16           -1.1702    -0.6882     0.0100 O.3     
  17 C17           -2.3722     0.0844     0.0261 C.3     
  18 N18            3.5160     2.1586    -0.0204 N.am    
  19 C19            4.7648     0.0469    -0.0427 C.2     
  20 C20            4.7137     1.5373    -0.0351 C.2     
  21 O21            5.7409     2.1860    -0.0419 O.2     
  22 C22           -3.5811    -0.8533     0.0330 C.3     
  23 C23           -4.8681    -0.0261     0.0502 C.3     
  24 C24           -6.0770    -0.9638     0.0572 C.3     
  25 C25           -0.3880    -5.3757    -4.7455 C.3     
  26 N26            0.7512    -4.9992    -3.8885 N.3     
  27 C27            1.1405    -3.6009    -4.1145 C.3     
  28 C28           -1.5132    -5.8771    -3.8160 C.3     
  29 C29           -0.7473    -6.2914    -2.5320 C.3     
  30 C30            0.3724    -5.2222    -2.4770 C.3     
  31 O31            5.8337    -0.5297    -0.0560 O.2     
  32 H32            1.2028    -1.7814    -0.0186 H       
  33 H33            4.5490    -2.4649     0.4601 H       
  34 H34            2.7696    -2.5061     0.4762 H       
  35 H35            5.7762    -2.6139    -1.6292 H       
  36 H36            5.7739    -3.4217    -3.9556 H       
  37 H37            3.6411    -3.8754    -5.0991 H       
  38 H38            1.5128    -2.7192    -1.5887 H       
  39 H39            1.8414     3.9532     0.0049 H       
  40 H40            0.1635     3.8672     0.0208 H       
  41 H41           -2.3911     0.7083     0.9196 H       
  42 H42           -2.4088     0.7178    -0.8602 H       
  43 H43            3.4714     3.1275    -0.0154 H       
  44 H44           -3.5622    -1.4772    -0.8605 H       
  45 H45           -3.5445    -1.4868     0.9193 H       
  46 H46           -4.8871     0.5978     0.9438 H       
  47 H47           -4.9047     0.6074    -0.8360 H       
  48 H48           -6.9939    -0.3745     0.0695 H       
  49 H49           -6.0581    -1.5877    -0.8364 H       
  50 H50           -6.0404    -1.5973     0.9435 H       
  51 H51           -0.7312    -4.5078    -5.3085 H       
  52 H52           -0.0905    -6.1703    -5.4298 H       
  53 H53            0.3687    -2.9405    -3.7192 H       
  54 H54            1.2569    -3.4244    -5.1838 H       
  55 H55           -2.2210    -5.0766    -3.6012 H       
  56 H56           -2.0219    -6.7354    -4.2551 H       
  57 H57           -1.3917    -6.2274    -1.6552 H       
  58 H58           -0.3271    -7.2919    -2.6337 H       
  59 H59            1.2252    -5.5947    -1.9094 H       
  60 H60           -0.0050    -4.3000    -2.0351 H       
@<TRIPOS>BOND
   1    1    2 ar
   2    1    6 ar
   3    2    3 ar
   4    2   16 1
   5    3    4 ar
   6    3   32 1
   7    4    5 ar
   8    4    7 1
   9    5    6 ar
  10    5   18 1
  11    6   15 1
  12    7    8 1
  13    7   19 am
  14    8    9 1
  15    8   33 1
  16    8   34 1
  17    9   10 ar
  18    9   14 ar
  19   10   11 ar
  20   10   35 1
  21   11   12 ar
  22   11   36 1
  23   12   13 ar
  24   12   37 1
  25   13   14 ar
  26   13   27 1
  27   14   38 1
  28   15   39 1
  29   15   40 1
  30   16   17 1
  31   17   22 1
  32   17   41 1
  33   17   42 1
  34   18   20 am
  35   18   43 1
  36   19   20 1
  37   19   31 2
  38   20   21 2
  39   22   23 1
  40   22   44 1
  41   22   45 1
  42   23   24 1
  43   23   46 1
  44   23   47 1
  45   24   48 1
  46   24   49 1
  47   24   50 1
  48   25   26 1
  49   25   28 1
  50   25   51 1
  51   25   52 1
  52   26   27 1
  53   26   30 1
  54   27   53 1
  55   27   54 1
  56   28   29 1
  57   28   55 1
  58   28   56 1
  59   29   30 1
  60   29   57 1
  61   29   58 1
  62   30   59 1
  63   30   60 1

#	End of record

