#	Name: ASD09740133
#	Creating user name:	WinNT
#	Creation time:	15. 06. 2019 21:22

#	Modifying user name:	WinNT
#	Modification time:	15. 06. 2019 21:22

#	Program:	/corina/corina34_cracker 3.40 0067  02.08.2006

@<TRIPOS>MOLECULE
ASD09740133
  48   50    0    0    0
SMALL
NO_CHARGES


@<TRIPOS>ATOM
   1 O1            -0.0144     1.2085     0.0087 O.3     
   2 N2             0.0021    -0.0041     0.0020 N.2     
   3 C3             1.2413     1.6828    -0.0008 C.2     
   4 N4             2.0459     0.6359    -0.0141 N.2     
   5 C5             1.2348    -0.4424    -0.0121 C.2     
   6 C6             1.6623    -1.8639    -0.0231 C.ar    
   7 C7             1.6455     3.1033     0.0023 C.ar    
   8 C8             0.7097    -2.8803    -0.0195 C.ar    
   9 C9             3.0177    -2.1863    -0.0427 C.ar    
  10 C10            3.4095    -3.5095    -0.0528 C.ar    
  11 C11            2.4594    -4.5150    -0.0435 C.ar    
  12 C12            1.1127    -4.2005    -0.0297 C.ar    
  13 C13            2.9994     3.4456    -0.0092 C.ar    
  14 C14            3.3751     4.7720    -0.0063 C.ar    
  15 C15            2.4105     5.7696     0.0080 C.ar    
  16 C16            1.0578     5.4349     0.0195 C.ar    
  17 C17            0.6745     4.1072     0.0109 C.ar    
  18 O18            2.7857     7.0754     0.0113 O.3     
  19 C19            4.1886     7.3473    -0.0006 C.3     
  20 C20            4.4149     8.8604     0.0051 C.3     
  21 O21            0.1149     6.4149     0.0336 O.3     
  22 C22           -1.2524     5.9995     0.0449 C.3     
  23 C23           -2.1596     7.2314     0.0599 C.3     
  24 C24            2.8933    -5.9581    -0.0545 C.3     
  25 O25            4.3206    -6.0262    -0.0743 O.3     
  26 C26            0.0834    -5.3012    -0.0191 C.3     
  27 H27           -0.3422    -2.6358    -0.0085 H       
  28 H28            3.7602    -1.4021    -0.0504 H       
  29 H29            4.4598    -3.7605    -0.0684 H       
  30 H30            3.7521     2.6712    -0.0200 H       
  31 H31            4.4224     5.0353    -0.0149 H       
  32 H32           -0.3735     3.8463     0.0198 H       
  33 H33            4.6514     6.9073     0.8827 H       
  34 H34            4.6346     6.9166    -0.8971 H       
  35 H35            3.9520     9.3004    -0.8782 H       
  36 H36            3.9689     9.2911     0.9016 H       
  37 H37            5.4849     9.0678    -0.0039 H       
  38 H38           -1.4594     5.4066    -0.8461 H       
  39 H39           -1.4420     5.3978     0.9338 H       
  40 H40           -3.2025     6.9145     0.0685 H       
  41 H41           -1.9526     7.8242     0.9509 H       
  42 H42           -1.9700     7.8331    -0.8290 H       
  43 H43            2.5181    -6.4572     0.8389 H       
  44 H44            2.4938    -6.4508    -0.9409 H       
  45 H45            4.6713    -6.9273    -0.0823 H       
  46 H46           -0.1543    -5.5665     1.0111 H       
  47 H47           -0.8200    -4.9587    -0.5238 H       
  48 H48            0.4800    -6.1745    -0.5369 H       
@<TRIPOS>BOND
   1    1    2 1
   2    1    3 1
   3    2    5 2
   4    3    4 2
   5    3    7 1
   6    4    5 1
   7    5    6 1
   8    6    8 ar
   9    6    9 ar
  10    7   13 ar
  11    7   17 ar
  12    8   12 ar
  13    8   27 1
  14    9   10 ar
  15    9   28 1
  16   10   11 ar
  17   10   29 1
  18   11   12 ar
  19   11   24 1
  20   12   26 1
  21   13   14 ar
  22   13   30 1
  23   14   15 ar
  24   14   31 1
  25   15   16 ar
  26   15   18 1
  27   16   17 ar
  28   16   21 1
  29   17   32 1
  30   18   19 1
  31   19   20 1
  32   19   33 1
  33   19   34 1
  34   20   35 1
  35   20   36 1
  36   20   37 1
  37   21   22 1
  38   22   23 1
  39   22   38 1
  40   22   39 1
  41   23   40 1
  42   23   41 1
  43   23   42 1
  44   24   25 1
  45   24   43 1
  46   24   44 1
  47   25   45 1
  48   26   46 1
  49   26   47 1
  50   26   48 1

#	End of record

