#	Name: ASD01913128
#	Creating user name:	WinNT
#	Creation time:	15. 06. 2019 20:01

#	Modifying user name:	WinNT
#	Modification time:	15. 06. 2019 20:01

#	Program:	/corina/corina34_cracker 3.40 0067  02.08.2006

@<TRIPOS>MOLECULE
ASD01913128
  44   47    0    0    0
SMALL
NO_CHARGES


@<TRIPOS>ATOM
   1 C1            -0.8123     1.6841    -0.1789 C.ar    
   2 C2            -0.6531     0.2088    -0.1759 C.2     
   3 N3            -1.6484    -0.7040    -0.1125 N.2     
   4 C4            -1.1234    -1.8944    -0.1325 C.2     
   5 O5             0.2096    -1.7838    -0.2084 O.3     
   6 C6             0.5165    -0.4727    -0.2422 C.2     
   7 C7            -1.8915    -3.1898    -0.0783 C.3     
   8 C8            -1.6032    -4.0077    -1.3393 C.3     
   9 C9            -2.4082    -5.3087    -1.3007 C.3     
  10 C10           -1.9813    -6.1326    -0.0819 C.3     
  11 N11           -2.1187    -5.3020     1.1222 N.am    
  12 C12           -1.4587    -3.9897     1.1544 C.3     
  13 C13           -2.8367    -5.7355     2.1772 C.2     
  14 C14           -2.8594    -4.9478     3.4319 C.ar    
  15 O15           -3.4654    -6.7724     2.0994 O.2     
  16 C16            0.3104     2.5096    -0.2487 C.ar    
  17 C17            0.1548     3.8834    -0.2510 C.ar    
  18 C18           -1.1101     4.4380    -0.1842 C.ar    
  19 C19           -2.2260     3.6233    -0.1148 C.ar    
  20 C20           -2.0838     2.2505    -0.1177 C.ar    
  21 C21           -4.0434    -4.7889     4.1591 C.ar    
  22 C22           -4.0210    -4.0473     5.3236 C.ar    
  23 N23           -2.9044    -3.4927     5.7526 N.ar    
  24 C24           -1.7650    -3.6170     5.0980 C.ar    
  25 C25           -1.6972    -4.3483     3.9240 C.ar    
  26 F26            1.5463     1.9679    -0.3135 F       
  27 F27           -0.6498    -3.0279     5.5822 F       
  28 H28            1.5066    -0.0456    -0.3032 H       
  29 H29           -2.9590    -2.9775    -0.0185 H       
  30 H30           -1.8876    -3.4307    -2.2193 H       
  31 H31           -0.5393    -4.2402    -1.3860 H       
  32 H32           -3.4709    -5.0770    -1.2290 H       
  33 H33           -2.2204    -5.8798    -2.2099 H       
  34 H34           -2.6190    -7.0122     0.0062 H       
  35 H35           -0.9423    -6.4420    -0.1957 H       
  36 H36           -0.3771    -4.1244     1.1413 H       
  37 H37           -1.7516    -3.4554     2.0581 H       
  38 H38            1.0224     4.5242    -0.3046 H       
  39 H39           -1.2273     5.5117    -0.1859 H       
  40 H40           -3.2113     4.0626    -0.0629 H       
  41 H41           -2.9563     1.6163    -0.0638 H       
  42 H42           -4.9624    -5.2396     3.8144 H       
  43 H43           -4.9310    -3.9194     5.8910 H       
  44 H44           -0.7621    -4.4470     3.3927 H       
@<TRIPOS>BOND
   1    1    2 1
   2    1   16 ar
   3    1   20 ar
   4    2    3 1
   5    2    6 2
   6    3    4 2
   7    4    5 1
   8    4    7 1
   9    5    6 1
  10    6   28 1
  11    7    8 1
  12    7   12 1
  13    7   29 1
  14    8    9 1
  15    8   30 1
  16    8   31 1
  17    9   10 1
  18    9   32 1
  19    9   33 1
  20   10   11 1
  21   10   34 1
  22   10   35 1
  23   11   12 1
  24   11   13 am
  25   12   36 1
  26   12   37 1
  27   13   14 1
  28   13   15 2
  29   14   21 ar
  30   14   25 ar
  31   16   17 ar
  32   16   26 1
  33   17   18 ar
  34   17   38 1
  35   18   19 ar
  36   18   39 1
  37   19   20 ar
  38   19   40 1
  39   20   41 1
  40   21   22 ar
  41   21   42 1
  42   22   23 ar
  43   22   43 1
  44   23   24 ar
  45   24   25 ar
  46   24   27 1
  47   25   44 1

#	End of record

