#	Name: ASD01120314
#	Creating user name:	WinNT
#	Creation time:	15. 06. 2019 18:59

#	Modifying user name:	WinNT
#	Modification time:	15. 06. 2019 18:59

#	Program:	/corina/corina34_cracker 3.40 0067  02.08.2006

@<TRIPOS>MOLECULE
ASD01120314
  37   39    0    0    0
SMALL
NO_CHARGES


@<TRIPOS>ATOM
   1 C1            -0.0187     1.5258     0.0104 C.3     
   2 C2             0.0021    -0.0041     0.0020 C.3     
   3 O3            -1.3601    -0.5067     0.0123 O.3     
   4 C4            -1.5187    -1.8458     0.0066 C.2     
   5 O5            -0.5446    -2.5733    -0.0066 O.2     
   6 C6            -2.8678    -2.4255     0.0164 C.2     
   7 C7            -3.1559    -3.7555     0.0120 C.2     
   8 C8            -4.5615    -3.8913     0.0247 C.ar    
   9 C9            -5.1024    -2.5918     0.0368 C.ar    
  10 N10           -4.0486    -1.7082     0.0375 N.pl3   
  11 C11           -6.4844    -2.4221     0.0509 C.ar    
  12 C12           -7.3178    -3.5194     0.0534 C.ar    
  13 C13           -6.7991    -4.8049     0.0416 C.ar    
  14 C14           -5.4269    -5.0064     0.0266 C.ar    
  15 C15           -4.8740    -6.3806     0.0135 C.ar    
  16 C16           -5.3227    -7.3243     0.9370 C.ar    
  17 C17           -4.8042    -8.6033     0.9205 C.ar    
  18 C18           -3.8409    -8.9503    -0.0093 C.ar    
  19 C19           -3.3907    -8.0179    -0.9288 C.ar    
  20 C20           -3.9070    -6.7372    -0.9261 C.ar    
  21 Cl21          -2.1809    -8.4621    -2.0919 Cl      
  22 N22           -7.0601    -1.0584     0.0637 N.pl3   
  23 O23           -8.2687    -0.9077     0.0761 O.2     
  24 O24           -6.3252    -0.0871     0.0619 O.2     
  25 H25            1.0039     1.9031     0.0027 H       
  26 H26           -0.5459     1.8868    -0.8726 H       
  27 H27           -0.5289     1.8773     0.9072 H       
  28 H28            0.5123    -0.3556    -0.8948 H       
  29 H29            0.5293    -0.3651     0.8851 H       
  30 H30           -2.4382    -4.5624     0.0008 H       
  31 H31           -4.1221    -0.7410     0.0451 H       
  32 H32           -8.3882    -3.3762     0.0651 H       
  33 H33           -7.4668    -5.6538     0.0441 H       
  34 H34           -6.0743    -7.0547     1.6641 H       
  35 H35           -5.1512    -9.3346     1.6354 H       
  36 H36           -3.4380    -9.9523    -0.0179 H       
  37 H37           -3.5558    -6.0105    -1.6437 H       
@<TRIPOS>BOND
   1    1    2 1
   2    1   25 1
   3    1   26 1
   4    1   27 1
   5    2    3 1
   6    2   28 1
   7    2   29 1
   8    3    4 1
   9    4    5 2
  10    4    6 1
  11    6    7 2
  12    6   10 1
  13    7    8 1
  14    7   30 1
  15    8    9 ar
  16    8   14 ar
  17    9   10 1
  18    9   11 ar
  19   10   31 1
  20   11   12 ar
  21   11   22 1
  22   12   13 ar
  23   12   32 1
  24   13   14 ar
  25   13   33 1
  26   14   15 1
  27   15   16 ar
  28   15   20 ar
  29   16   17 ar
  30   16   34 1
  31   17   18 ar
  32   17   35 1
  33   18   19 ar
  34   18   36 1
  35   19   20 ar
  36   19   21 1
  37   20   37 1
  38   22   23 2
  39   22   24 2

#	End of record

