#	Name: ASD00602010
#	Creating user name:	WinNT
#	Creation time:	15. 06. 2019 18:36

#	Modifying user name:	WinNT
#	Modification time:	15. 06. 2019 18:36

#	Program:	/corina/corina34_cracker 3.40 0067  02.08.2006

@<TRIPOS>MOLECULE
ASD00602010
  66   70    0    0    0
SMALL
NO_CHARGES


@<TRIPOS>ATOM
   1 C1            -0.0179     1.4663     0.0101 C.3     
   2 N2             0.0021    -0.0041     0.0020 N.am    
   3 C3             1.2730    -0.4269    -0.0124 C.2     
   4 N4             2.1748     0.5636    -0.0157 N.am    
   5 C5             1.4731     1.8559    -0.0020 C.3     
   6 C6            -1.1803    -0.8691     0.0087 C.3     
   7 C7            -1.1780    -1.7456    -1.2454 C.3     
   8 C8            -2.4128    -2.6490    -1.2384 C.3     
   9 C9            -2.3866    -3.5389     0.0058 C.3     
  10 C10           -2.3889    -2.6624     1.2599 C.3     
  11 C11           -1.1541    -1.7590     1.2529 C.3     
  12 O12            1.5803    -1.6032    -0.0213 O.2     
  13 C13            3.6291     0.3875    -0.0305 C.3     
  14 C14            4.0621    -0.3976     1.2107 C.3     
  15 C15            5.5737    -0.6311     1.1590 C.3     
  16 N16            5.9133    -1.3789    -0.0584 N.3     
  17 C17            5.5498    -0.6237    -1.2642 C.3     
  18 C18            4.0376    -0.3900    -1.2848 C.3     
  19 C19            7.3368    -1.7415    -0.0734 C.3     
  20 C20            7.5971    -2.7078    -1.2002 C.ar    
  21 C21            7.9425    -2.2330    -2.4518 C.ar    
  22 C22            8.1817    -3.1189    -3.4854 C.ar    
  23 C23            8.0755    -4.4807    -3.2674 C.ar    
  24 C24            7.7299    -4.9553    -2.0149 C.ar    
  25 C25            7.4960    -4.0689    -0.9805 C.ar    
  26 Br26           8.4021    -5.6932    -4.6813 Br      
  27 C27            1.8260     2.6363     1.2379 C.ar    
  28 C28            2.0302     4.0013     1.1606 C.ar    
  29 C29            2.3540     4.7172     2.2979 C.ar    
  30 C30            2.4731     4.0682     3.5126 C.ar    
  31 C31            2.2679     2.7034     3.5901 C.ar    
  32 C32            1.9399     1.9882     2.4535 C.ar    
  33 H33           -0.5200     1.8470    -0.8793 H       
  34 H34           -0.5029     1.8374     0.9129 H       
  35 H35            1.7112     2.4300    -0.8974 H       
  36 H36           -2.0802    -0.2542     0.0206 H       
  37 H37           -1.1966    -1.1116    -2.1318 H       
  38 H38           -0.2780    -2.3604    -1.2573 H       
  39 H39           -3.3127    -2.0342    -1.2265 H       
  40 H40           -2.4111    -3.2734    -2.1318 H       
  41 H41           -3.2663    -4.1825     0.0108 H       
  42 H42           -1.4866    -4.1538    -0.0061 H       
  43 H43           -3.2889    -2.0476     1.2718 H       
  44 H44           -2.3703    -3.2964     2.1463 H       
  45 H45           -0.2541    -2.3739     1.2411 H       
  46 H46           -1.1557    -1.1346     2.1464 H       
  47 H47            4.1142     1.3636    -0.0317 H       
  48 H48            3.8122     0.1709     2.1065 H       
  49 H49            3.5461    -1.3575     1.2325 H       
  50 H50            6.0894     0.3291     1.1512 H       
  51 H51            5.8831    -1.2023     2.0343 H       
  52 H52            6.0657     0.3365    -1.2606 H       
  53 H53            5.8420    -1.1895    -2.1488 H       
  54 H54            3.5212    -1.3498    -1.3023 H       
  55 H55            3.7701     0.1840    -2.1720 H       
  56 H56            7.9388    -0.8444    -0.2178 H       
  57 H57            7.6027    -2.2089     0.8747 H       
  58 H58            8.0250    -1.1697    -2.6220 H       
  59 H59            8.4512    -2.7478    -4.4632 H       
  60 H60            7.6466    -6.0185    -1.8443 H       
  61 H61            7.2261    -4.4394    -0.0026 H       
  62 H62            1.9372     4.5084     0.2115 H       
  63 H63            2.5143     5.7836     2.2374 H       
  64 H64            2.7267     4.6275     4.4010 H       
  65 H65            2.3613     2.1963     4.5390 H       
  66 H66            1.7796     0.9218     2.5140 H       
@<TRIPOS>BOND
   1    1    2 1
   2    1    5 1
   3    1   33 1
   4    1   34 1
   5    2    3 am
   6    2    6 1
   7    3    4 am
   8    3   12 2
   9    4    5 1
  10    4   13 1
  11    5   27 1
  12    5   35 1
  13    6    7 1
  14    6   11 1
  15    6   36 1
  16    7    8 1
  17    7   37 1
  18    7   38 1
  19    8    9 1
  20    8   39 1
  21    8   40 1
  22    9   10 1
  23    9   41 1
  24    9   42 1
  25   10   11 1
  26   10   43 1
  27   10   44 1
  28   11   45 1
  29   11   46 1
  30   13   14 1
  31   13   18 1
  32   13   47 1
  33   14   15 1
  34   14   48 1
  35   14   49 1
  36   15   16 1
  37   15   50 1
  38   15   51 1
  39   16   17 1
  40   16   19 1
  41   17   18 1
  42   17   52 1
  43   17   53 1
  44   18   54 1
  45   18   55 1
  46   19   20 1
  47   19   56 1
  48   19   57 1
  49   20   21 ar
  50   20   25 ar
  51   21   22 ar
  52   21   58 1
  53   22   23 ar
  54   22   59 1
  55   23   24 ar
  56   23   26 1
  57   24   25 ar
  58   24   60 1
  59   25   61 1
  60   27   28 ar
  61   27   32 ar
  62   28   29 ar
  63   28   62 1
  64   29   30 ar
  65   29   63 1
  66   30   31 ar
  67   30   64 1
  68   31   32 ar
  69   31   65 1
  70   32   66 1

#	End of record

