#	Name: ASD04590558
#	Creating user name:	WinNT
#	Creation time:	15. 06. 2019 20:51

#	Modifying user name:	WinNT
#	Modification time:	15. 06. 2019 20:51

#	Program:	/corina/corina34_cracker 3.40 0067  02.08.2006

@<TRIPOS>MOLECULE
ASD04590558
  68   73    0    0    0
SMALL
NO_CHARGES


@<TRIPOS>ATOM
   1 N1             2.2756     1.4479    -0.0343 N.ar    
   2 C2             2.4034     0.1287    -0.0489 C.ar    
   3 C3             1.2881    -0.6783    -0.0393 C.ar    
   4 C4             0.0243    -0.0953    -0.0068 C.ar    
   5 C5            -0.0733     1.2828     0.0107 C.ar    
   6 C6             1.0942     2.0390    -0.0054 C.ar    
   7 C7             3.7949    -0.4529    -0.0693 C.3     
   8 C8             3.7424    -1.9175    -0.5040 C.3     
   9 N9             2.7351    -2.6130     0.3128 N.3     
  10 C10            1.3868    -2.1799    -0.0683 C.3     
  11 N11            1.0173     3.4289     0.0098 N.pl3   
  12 C12            2.1738     4.1856     0.1067 C.ar    
  13 N13            2.0849     5.5022     0.0110 N.ar    
  14 C14            3.1724     6.2623     0.0990 C.ar    
  15 C15            4.4179     5.6326     0.2962 C.ar    
  16 C16            4.4615     4.2453     0.3908 C.ar    
  17 N17            3.3307     3.5649     0.2977 N.ar    
  18 N18            3.3769     7.6185     0.0377 N.pl3   
  19 C19            4.7212     7.9122     0.1880 C.ar    
  20 C20            5.4210     6.7036     0.3537 C.ar    
  21 C21            5.4399     9.1006     0.2021 C.ar    
  22 N22            6.7469     9.0915     0.3667 N.ar    
  23 C23            7.4338     7.9738     0.5249 C.ar    
  24 C24            6.8041     6.7473     0.5253 C.ar    
  25 C25            2.3211     8.6146    -0.1600 C.3     
  26 C26            1.3056     8.5145     0.9801 C.3     
  27 C27            0.2029     9.5549     0.7737 C.3     
  28 C28           -0.5004     9.2949    -0.5600 C.3     
  29 C29            0.5150     9.3950    -1.7000 C.3     
  30 C30            1.6178     8.3546    -1.4936 C.3     
  31 C31           -1.6031    10.3352    -0.7663 C.3     
  32 C32            4.6615     0.3377    -1.0516 C.3     
  33 C33            2.8739    -4.0704     0.1915 C.3     
  34 C34            1.9872    -4.7556     1.2332 C.3     
  35 O35            0.6147    -4.4813     0.9450 O.3     
  36 H36           -0.8641    -0.7093     0.0042 H       
  37 H37           -1.0395     1.7647     0.0361 H       
  38 H38            4.2293    -0.3869     0.9283 H       
  39 H39            3.4650    -1.9772    -1.5564 H       
  40 H40            4.7182    -2.3793    -0.3532 H       
  41 H41            0.6625    -2.6020     0.6284 H       
  42 H42            1.1647    -2.5363    -1.0741 H       
  43 H43            0.1540     3.8675    -0.0475 H       
  44 H44            5.4005     3.7335     0.5414 H       
  45 H45            4.9227    10.0404     0.0767 H       
  46 H46            8.5048     8.0218     0.6559 H       
  47 H47            7.3715     5.8376     0.6548 H       
  48 H48            2.7599     9.6123    -0.1691 H       
  49 H49            0.8668     7.5168     0.9892 H       
  50 H50            1.8067     8.6998     1.9302 H       
  51 H51           -0.5205     9.4835     1.5859 H       
  52 H52            0.6417    10.5526     0.7646 H       
  53 H53           -0.9393     8.2971    -0.5508 H       
  54 H54            0.0140     9.2097    -2.6502 H       
  55 H55            0.9539    10.3927    -1.7091 H       
  56 H56            2.3412     8.4259    -2.3058 H       
  57 H57            1.1789     7.3569    -1.4845 H       
  58 H58           -1.1643    11.3329    -0.7755 H       
  59 H59           -2.1042    10.1500    -1.7165 H       
  60 H60           -2.3265    10.2639     0.0459 H       
  61 H61            4.7073     1.3805    -0.7378 H       
  62 H62            5.6675    -0.0815    -1.0674 H       
  63 H63            4.2270     0.2773    -2.0494 H       
  64 H64            2.5687    -4.3825    -0.8073 H       
  65 H65            3.9138    -4.3515     0.3581 H       
  66 H66            2.1567    -5.8320     1.2031 H       
  67 H67            2.2330    -4.3767     2.2252 H       
  68 H68           -0.0061    -4.8854     1.5666 H       
@<TRIPOS>BOND
   1    1    2 ar
   2    1    6 ar
   3    2    3 ar
   4    2    7 1
   5    3    4 ar
   6    3   10 1
   7    4    5 ar
   8    4   36 1
   9    5    6 ar
  10    5   37 1
  11    6   11 1
  12    7    8 1
  13    7   32 1
  14    7   38 1
  15    8    9 1
  16    8   39 1
  17    8   40 1
  18    9   10 1
  19    9   33 1
  20   10   41 1
  21   10   42 1
  22   11   12 1
  23   11   43 1
  24   12   13 ar
  25   12   17 ar
  26   13   14 ar
  27   14   15 ar
  28   14   18 1
  29   15   16 ar
  30   15   20 1
  31   16   17 ar
  32   16   44 1
  33   18   19 1
  34   18   25 1
  35   19   20 ar
  36   19   21 ar
  37   20   24 ar
  38   21   22 ar
  39   21   45 1
  40   22   23 ar
  41   23   24 ar
  42   23   46 1
  43   24   47 1
  44   25   26 1
  45   25   30 1
  46   25   48 1
  47   26   27 1
  48   26   49 1
  49   26   50 1
  50   27   28 1
  51   27   51 1
  52   27   52 1
  53   28   29 1
  54   28   31 1
  55   28   53 1
  56   29   30 1
  57   29   54 1
  58   29   55 1
  59   30   56 1
  60   30   57 1
  61   31   58 1
  62   31   59 1
  63   31   60 1
  64   32   61 1
  65   32   62 1
  66   32   63 1
  67   33   34 1
  68   33   64 1
  69   33   65 1
  70   34   35 1
  71   34   66 1
  72   34   67 1
  73   35   68 1

#	End of record

