#	Name: ASD03731896
#	Creating user name:	WinNT
#	Creation time:	15. 06. 2019 20:46

#	Modifying user name:	WinNT
#	Modification time:	15. 06. 2019 20:46

#	Program:	/corina/corina34_cracker 3.40 0067  02.08.2006

@<TRIPOS>MOLECULE
ASD03731896
  32   33    0    0    0
SMALL
NO_CHARGES


@<TRIPOS>ATOM
   1 C1            -0.7935     1.3768     0.4075 C.2     
   2 C2            -0.5697    -0.0667     0.2975 C.ar    
   3 C3            -1.5079    -0.9701     0.8295 C.ar    
   4 C4            -1.2850    -2.3312     0.7187 C.ar    
   5 C5            -0.1408    -2.7964     0.0853 C.ar    
   6 C6             0.7860    -1.8996    -0.4402 C.ar    
   7 C7             0.5772    -0.5546    -0.3432 C.ar    
   8 O8             0.0176     2.1533    -0.0524 O.2     
   9 O9            -2.6237    -0.5096     1.4476 O.3     
  10 C10           -3.5301    -1.4869     1.9626 C.3     
  11 O11            0.0760    -4.1312    -0.0218 O.3     
  12 C12           -0.4280    -4.7743    -1.1079 C.ar    
  13 C13           -0.3258    -6.1546    -1.2074 C.ar    
  14 C14           -0.8390    -6.8063    -2.3117 C.ar    
  15 C15           -1.4548    -6.0836    -3.3186 C.ar    
  16 C16           -1.5577    -4.7073    -3.2213 C.ar    
  17 C17           -1.0503    -4.0522    -2.1158 C.ar    
  18 C18           -0.7279    -8.3052    -2.4205 C.3     
  19 F19           -0.0717    -8.8074    -1.2916 F       
  20 F20           -2.0083    -8.8630    -2.5022 F       
  21 F21           -0.0007    -8.6368    -3.5687 F       
  22 Cl22          -2.0985    -6.9050    -4.7059 Cl      
  23 H23           -1.6827     1.7499     0.8939 H       
  24 H24           -2.0004    -3.0310     1.1249 H       
  25 H25            1.6735    -2.2709    -0.9310 H       
  26 H26            1.2983     0.1345    -0.7573 H       
  27 H27           -3.0186    -2.1029     2.7022 H       
  28 H28           -4.3775    -0.9857     2.4305 H       
  29 H29           -3.8858    -2.1177     1.1478 H       
  30 H30            0.1550    -6.7189    -0.4220 H       
  31 H31           -2.0383    -4.1451    -4.0083 H       
  32 H32           -1.1347    -2.9783    -2.0381 H       
@<TRIPOS>BOND
   1    1    2 1
   2    1    8 2
   3    1   23 1
   4    2    3 ar
   5    2    7 ar
   6    3    4 ar
   7    3    9 1
   8    4    5 ar
   9    4   24 1
  10    5    6 ar
  11    5   11 1
  12    6    7 ar
  13    6   25 1
  14    7   26 1
  15    9   10 1
  16   10   27 1
  17   10   28 1
  18   10   29 1
  19   11   12 1
  20   12   13 ar
  21   12   17 ar
  22   13   14 ar
  23   13   30 1
  24   14   15 ar
  25   14   18 1
  26   15   16 ar
  27   15   22 1
  28   16   17 ar
  29   16   31 1
  30   17   32 1
  31   18   19 1
  32   18   20 1
  33   18   21 1

#	End of record

