#	Name: ASD00170208
#	Creating user name:	WinNT
#	Creation time:	15. 06. 2019 18:31

#	Modifying user name:	WinNT
#	Modification time:	15. 06. 2019 18:31

#	Program:	/corina/corina34_cracker 3.40 0067  02.08.2006

@<TRIPOS>MOLECULE
ASD00170208
  48   51    0    0    0
SMALL
NO_CHARGES


@<TRIPOS>ATOM
   1 C1             0.0033     1.4522    -0.0713 C.2     
   2 C2             0.0111     0.0067     0.2117 C.2     
   3 C3            -1.2453    -0.5330     0.2891 C.2     
   4 C4            -2.3093     0.4305     0.0768 C.2     
   5 S5            -1.6481     2.0295    -0.2145 S.3     
   6 C6             1.2386    -0.7747     0.3913 C.ar    
   7 C7             2.0645    -0.5483     1.5054 C.ar    
   8 C8             3.2149    -1.2873     1.6649 C.ar    
   9 C9             3.5596    -2.2523     0.7309 C.ar    
  10 C10            2.7514    -2.4831    -0.3723 C.ar    
  11 C11            1.5940    -1.7594    -0.5467 C.ar    
  12 N12           -3.6180     0.1397     0.1037 N.pl3   
  13 C13           -1.4930    -1.9563     0.5616 C.2     
  14 C14           -1.5449    -2.4438     1.9563 C.ar    
  15 O15           -1.6551    -2.7328    -0.3606 O.2     
  16 C16           -1.6700    -3.8099     2.2176 C.ar    
  17 C17           -1.7178    -4.2579     3.5212 C.ar    
  18 C18           -1.6423    -3.3570     4.5690 C.ar    
  19 C19           -1.5183    -2.0019     4.3172 C.ar    
  20 C20           -1.4634    -1.5408     3.0184 C.ar    
  21 C21            1.1539     2.2557    -0.2019 C.ar    
  22 C22            2.2287     1.8335    -1.0150 C.ar    
  23 C23            3.3371     2.6210    -1.1336 C.ar    
  24 C24            3.4110     3.8324    -0.4587 C.ar    
  25 C25            2.3613     4.2586     0.3442 C.ar    
  26 C26            1.2393     3.4925     0.4745 C.ar    
  27 N27            4.6195     4.6764    -0.5959 N.pl3   
  28 O28            5.6186     4.2773    -1.3556 O.2     
  29 O29            4.6955     5.8262     0.0416 O.2     
  30 C30            4.1028    -1.0463     2.8584 C.3     
  31 F31            3.7026    -1.8747     3.9123 F       
  32 F32            5.4293    -1.3325     2.5182 F       
  33 F33            4.0009     0.2921     3.2528 F       
  34 H34            1.7979     0.2032     2.2338 H       
  35 H35            4.4638    -2.8279     0.8632 H       
  36 H36            3.0290    -3.2365    -1.0946 H       
  37 H37            0.9660    -1.9405    -1.4064 H       
  38 H38           -3.9117    -0.7522     0.3469 H       
  39 H39           -4.2709     0.8213    -0.1201 H       
  40 H40           -1.7294    -4.5140     1.4008 H       
  41 H41           -1.8149    -5.3141     3.7247 H       
  42 H42           -1.6806    -3.7131     5.5879 H       
  43 H43           -1.4598    -1.3042     5.1395 H       
  44 H44           -1.3662    -0.4830     2.8233 H       
  45 H45            2.1739     0.8915    -1.5404 H       
  46 H46            4.1605     2.3006    -1.7547 H       
  47 H47            2.4312     5.2026     0.8642 H       
  48 H48            0.4242     3.8262     1.0996 H       
@<TRIPOS>BOND
   1    1    2 2
   2    1   21 1
   3    1    5 1
   4    2    3 1
   5    2    6 1
   6    3    4 2
   7    3   13 1
   8    4    5 1
   9    4   12 1
  10    6    7 ar
  11    6   11 ar
  12    7    8 ar
  13    7   34 1
  14    8    9 ar
  15    8   30 1
  16    9   10 ar
  17    9   35 1
  18   10   11 ar
  19   10   36 1
  20   11   37 1
  21   12   38 1
  22   12   39 1
  23   13   14 1
  24   13   15 2
  25   14   16 ar
  26   14   20 ar
  27   16   17 ar
  28   16   40 1
  29   17   18 ar
  30   17   41 1
  31   18   19 ar
  32   18   42 1
  33   19   20 ar
  34   19   43 1
  35   20   44 1
  36   21   22 ar
  37   21   26 ar
  38   22   23 ar
  39   22   45 1
  40   23   24 ar
  41   23   46 1
  42   24   25 ar
  43   24   27 1
  44   25   26 ar
  45   25   47 1
  46   26   48 1
  47   27   28 2
  48   27   29 2
  49   30   31 1
  50   30   32 1
  51   30   33 1

#	End of record

