#	Name: ASD03470017
#	Creating user name:	WinNT
#	Creation time:	15. 06. 2019 20:42

#	Modifying user name:	WinNT
#	Modification time:	15. 06. 2019 20:42

#	Program:	/corina/corina34_cracker 3.40 0067  02.08.2006

@<TRIPOS>MOLECULE
ASD03470017
  18   19    0    0    0
SMALL
NO_CHARGES


@<TRIPOS>ATOM
   1 C1            -0.0161     1.3355     0.0094 C.2     
   2 C2             0.0021    -0.0041     0.0020 C.2     
   3 O3             1.2708    -0.4493    -0.0125 O.3     
   4 C4             2.1405     0.5774    -0.0153 C.ar    
   5 C5             1.3887     1.7629    -0.0017 C.ar    
   6 C6             2.0296     3.0009    -0.0012 C.ar    
   7 C7             3.4079     3.0630    -0.0140 C.ar    
   8 C8             4.1623     1.9040    -0.0279 C.ar    
   9 C9             3.5417     0.6555    -0.0286 C.ar    
  10 C10            4.3528    -0.5756    -0.0428 C.2     
  11 O11            3.8084    -1.6619    -0.0429 O.2     
  12 O12            5.6979    -0.4962    -0.0556 O.3     
  13 H13           -0.8881     1.9726     0.0172 H       
  14 H14           -0.8747    -0.6346     0.0073 H       
  15 H15            1.4477     3.9107     0.0089 H       
  16 H16            3.9012     4.0237    -0.0136 H       
  17 H17            5.2404     1.9666    -0.0386 H       
  18 H18            6.1869    -1.3304    -0.0646 H       
@<TRIPOS>BOND
   1    1    2 2
   2    1    5 1
   3    1   13 1
   4    2    3 1
   5    2   14 1
   6    3    4 1
   7    4    5 ar
   8    4    9 ar
   9    5    6 ar
  10    6    7 ar
  11    6   15 1
  12    7    8 ar
  13    7   16 1
  14    8    9 ar
  15    8   17 1
  16    9   10 1
  17   10   11 2
  18   10   12 1
  19   12   18 1

#	End of record

