#	Name: ASD01811337
#	Creating user name:	WinNT
#	Creation time:	15. 06. 2019 19:26

#	Modifying user name:	WinNT
#	Modification time:	15. 06. 2019 19:26

#	Program:	/corina/corina34_cracker 3.40 0067  02.08.2006

@<TRIPOS>MOLECULE
ASD01811337
  43   47    0    0    0
SMALL
NO_CHARGES


@<TRIPOS>ATOM
   1 C1            -0.0168     1.3871     0.0097 C.ar    
   2 C2             0.0021    -0.0041     0.0020 C.ar    
   3 C3             1.2151    -0.6854    -0.0133 C.ar    
   4 C4             2.4029     0.0178    -0.0204 C.ar    
   5 C5             2.3864     1.4133    -0.0128 C.ar    
   6 C6             1.1685     2.0946     0.0022 C.ar    
   7 C7             3.6587     2.1696    -0.0199 C.ar    
   8 C8             4.6630     1.8690     0.8793 C.ar    
   9 C9             5.8646     2.5724     0.8843 C.ar    
  10 C10            6.1235     3.5835     0.0188 C.ar    
  11 C11            3.8818     3.2482    -0.9842 C.ar    
  12 N12            3.8850     4.7891    -2.5521 N.pl3   
  13 C13            3.1462     3.8141    -2.0021 C.2     
  14 C14            5.1635     3.9692    -0.9406 C.ar    
  15 N15            5.1157     4.8845    -1.8919 N.2     
  16 C16            3.4618     5.6367    -3.6695 C.3     
  17 F17            1.2304    -2.0363    -0.0207 F       
  18 F18           -1.1961     2.0461     0.0188 F       
  19 N19           -1.2023    -0.7200     0.0102 N.am    
  20 C20           -1.7784    -1.0492    -1.1569 C.2     
  21 N21           -2.9353    -1.7364    -1.2033 N.am    
  22 C22           -2.9191    -1.7615     1.2420 C.2     
  23 C23           -1.7646    -1.0744     1.2114 C.2     
  24 O24           -1.2426    -0.7186    -2.1971 O.2     
  25 C25           -4.9291    -2.9160    -1.6806 C.3     
  26 N26           -4.6734    -2.7795    -0.2428 N.2     
  27 C27           -3.5636    -2.1230    -0.0352 C.2     
  28 C28           -3.7384    -2.2008    -2.3457 C.3     
  29 H29            3.3442    -0.5115    -0.0316 H       
  30 H30            1.1534     3.1745     0.0078 H       
  31 H31            4.5131     1.0726     1.5931 H       
  32 H32            6.6205     2.3020     1.6067 H       
  33 H33            7.0720     4.0980     0.0643 H       
  34 H34            2.1508     3.5238    -2.3041 H       
  35 H35            2.9587     6.5230    -3.2830 H       
  36 H36            4.3351     5.9380    -4.2481 H       
  37 H37            2.7768     5.0799    -4.3089 H       
  38 H38           -3.3666    -2.0439     2.1835 H       
  39 H39           -1.2772    -0.8001     2.1354 H       
  40 H40           -4.9511    -3.9678    -1.9659 H       
  41 H41           -5.8654    -2.4272    -1.9496 H       
  42 H42           -4.0826    -1.3557    -2.9418 H       
  43 H43           -3.1665    -2.8970    -2.9592 H       
@<TRIPOS>BOND
   1    1    2 ar
   2    1    6 ar
   3    1   18 1
   4    2    3 ar
   5    2   19 1
   6    3    4 ar
   7    3   17 1
   8    4    5 ar
   9    4   29 1
  10    5    6 ar
  11    5    7 1
  12    6   30 1
  13    7    8 ar
  14    7   11 ar
  15    8    9 ar
  16    8   31 1
  17    9   10 ar
  18    9   32 1
  19   10   14 ar
  20   10   33 1
  21   11   14 ar
  22   11   13 2
  23   12   13 1
  24   12   15 1
  25   12   16 1
  26   13   34 1
  27   14   15 2
  28   16   35 1
  29   16   36 1
  30   16   37 1
  31   19   20 am
  32   19   23 1
  33   20   21 am
  34   20   24 2
  35   21   28 1
  36   21   27 1
  37   22   23 2
  38   22   27 1
  39   22   38 1
  40   23   39 1
  41   25   26 1
  42   25   28 1
  43   25   40 1
  44   25   41 1
  45   26   27 2
  46   28   42 1
  47   28   43 1

#	End of record

