#	Name: ASD01209173
#	Creating user name:	WinNT
#	Creation time:	15. 06. 2019 19:11

#	Modifying user name:	WinNT
#	Modification time:	15. 06. 2019 19:11

#	Program:	/corina/corina34_cracker 3.40 0067  02.08.2006

@<TRIPOS>MOLECULE
ASD01209173
  68   70    0    0    0
SMALL
NO_CHARGES


@<TRIPOS>ATOM
   1 O1             0.1216    -0.2045    -0.6758 O.3     
   2 O2             2.1976     0.5102     0.7705 O.3     
   3 C3             2.0523     5.8675    -8.6246 C.ar    
   4 C4             1.2105     6.0773    -9.7070 C.ar    
   5 C5            -0.1322     5.7377    -9.6229 C.ar    
   6 C6            -0.6374     5.1866    -8.4572 C.ar    
   7 C7             0.2059     4.9738    -7.3657 C.ar    
   8 C8             1.5565     5.3120    -7.4565 C.ar    
   9 O9            -0.9528     5.9461   -10.6860 O.3     
  10 C10           -0.3291     4.3869    -6.1190 C.2     
  11 N11            0.4871     4.1822    -5.0661 N.am    
  12 O12           -1.5051     4.0887    -6.0434 O.2     
  13 C13           -0.0156     3.6307    -3.8947 C.2     
  14 P14            1.3565     0.8227    -0.5663 P.3     
  15 O15            2.2334     0.6679    -1.7484 O.2     
  16 C16            0.7222     2.5305    -0.4997 C.3     
  17 N17            0.6807     3.3931    -2.8272 N.2     
  18 S18           -1.6443     3.1730    -3.6480 S.3     
  19 C19           -1.2594     2.6463    -2.0115 C.2     
  20 C20            0.0403     2.8642    -1.8015 C.2     
  21 C21            0.2935    -1.6123    -0.8504 C.3     
  22 C22           -1.0770    -2.2893    -0.9152 C.3     
  23 C23            2.9113    -0.7111     0.9733 C.3     
  24 C24            3.5968    -0.6802     2.3408 C.3     
  25 O25            3.3665     6.2024    -8.7122 O.3     
  26 C26            4.1511     6.0667    -7.5255 C.3     
  27 C27            5.3477     7.0177    -7.5937 C.3     
  28 C28            4.6511     4.6255    -7.4068 C.3     
  29 O29            6.2091     6.6234    -8.6636 O.3     
  30 C30           -0.3949     6.6254   -11.8127 C.3     
  31 C31            0.3389     5.6308   -12.7331 C.3     
  32 C32            7.3642     7.4510    -8.8149 C.3     
  33 O33           -0.3488     5.6294   -13.9954 O.3     
  34 C34           -0.9852     6.9184   -14.1301 C.3     
  35 C35           -1.5180     7.2094   -12.7040 C.3     
  36 H36            1.6013     6.5066   -10.6177 H       
  37 H37           -1.6827     4.9228    -8.3924 H       
  38 H38            2.2125     5.1490    -6.6142 H       
  39 H39            1.4255     4.4201    -5.1265 H       
  40 H40            0.0076     2.6211     0.3184 H       
  41 H41            1.5507     3.2197    -0.3365 H       
  42 H42           -1.9547     2.2242    -1.3010 H       
  43 H43            0.8357    -1.8000    -1.7772 H       
  44 H44            0.8589    -2.0163    -0.0106 H       
  45 H45           -1.6191    -2.1017     0.0116 H       
  46 H46           -1.6424    -1.8854    -1.7550 H       
  47 H47           -0.9459    -3.3632    -1.0484 H       
  48 H48            2.2155    -1.5492     0.9344 H       
  49 H49            3.6631    -0.8265     0.1925 H       
  50 H50            4.1411    -1.6118     2.4954 H       
  51 H51            4.2926     0.1579     2.3796 H       
  52 H52            2.8450    -0.5648     3.1215 H       
  53 H53            3.5408     6.3123    -6.6564 H       
  54 H54            4.9945     8.0341    -7.7673 H       
  55 H55            5.8963     6.9794    -6.6526 H       
  56 H56            3.7986     3.9480    -7.3582 H       
  57 H57            5.2613     4.3799    -8.2759 H       
  58 H58            5.2495     4.5220    -6.5017 H       
  59 H59            0.2832     7.4133   -11.4847 H       
  60 H60            1.3718     5.9491   -12.8741 H       
  61 H61            0.3129     4.6327   -12.2958 H       
  62 H62            7.9661     7.0861    -9.6471 H       
  63 H63            7.0528     8.4765    -9.0138 H       
  64 H64            7.9546     7.4218    -7.8991 H       
  65 H65           -0.2603     7.6748   -14.4308 H       
  66 H66           -1.8072     6.8678   -14.8440 H       
  67 H67           -2.4618     6.6932   -12.5285 H       
  68 H68           -1.6264     8.2816   -12.5405 H       
@<TRIPOS>BOND
   1    1   21 1
   2    1   14 1
   3    2   23 1
   4    2   14 1
   5    3    4 ar
   6    3   25 1
   7    3    8 ar
   8    4    5 ar
   9    4   36 1
  10    5    6 ar
  11    5    9 1
  12    6    7 ar
  13    6   37 1
  14    7    8 ar
  15    7   10 1
  16    8   38 1
  17    9   30 1
  18   10   11 am
  19   10   12 2
  20   11   13 1
  21   11   39 1
  22   13   17 2
  23   13   18 1
  24   14   15 2
  25   14   16 1
  26   16   20 1
  27   16   40 1
  28   16   41 1
  29   17   20 1
  30   18   19 1
  31   19   20 2
  32   19   42 1
  33   21   22 1
  34   21   43 1
  35   21   44 1
  36   22   45 1
  37   22   46 1
  38   22   47 1
  39   23   24 1
  40   23   48 1
  41   23   49 1
  42   24   50 1
  43   24   51 1
  44   24   52 1
  45   25   26 1
  46   26   27 1
  47   26   28 1
  48   26   53 1
  49   27   29 1
  50   27   54 1
  51   27   55 1
  52   28   56 1
  53   28   57 1
  54   28   58 1
  55   29   32 1
  56   30   31 1
  57   30   35 1
  58   30   59 1
  59   31   33 1
  60   31   60 1
  61   31   61 1
  62   32   62 1
  63   32   63 1
  64   32   64 1
  65   33   34 1
  66   34   35 1
  67   34   65 1
  68   34   66 1
  69   35   67 1
  70   35   68 1

#	End of record

