#	Name: ASD01915158
#	Creating user name:	WinNT
#	Creation time:	15. 06. 2019 20:04

#	Modifying user name:	WinNT
#	Modification time:	15. 06. 2019 20:04

#	Program:	/corina/corina34_cracker 3.40 0067  02.08.2006

@<TRIPOS>MOLECULE
ASD01915158
  34   35    0    0    0
SMALL
NO_CHARGES


@<TRIPOS>ATOM
   1 C1            -0.0158     1.3144     0.0093 C.ar    
   2 N2             0.0021    -0.0041     0.0020 N.ar    
   3 C3            -1.1213    -0.6997     0.0094 C.ar    
   4 C4            -2.3426    -0.0133     0.0253 C.ar    
   5 C5            -2.3121     1.3874     0.0325 C.ar    
   6 N6            -1.1416     2.0006     0.0292 N.ar    
   7 C7            -3.5864    -0.7230     0.0333 C.1     
   8 C8            -4.6060    -1.3049     0.0400 C.1     
   9 C9            -5.8498    -2.0146     0.0481 C.ar    
  10 C10           -7.0582    -1.3132     0.0638 C.ar    
  11 C11           -8.2522    -2.0035     0.0716 C.ar    
  12 C12           -8.2554    -3.3872     0.0638 C.ar    
  13 C13           -7.0626    -4.0886     0.0486 C.ar    
  14 C14           -5.8609    -3.4118     0.0344 C.ar    
  15 C15            1.2931     2.0613     0.0008 C.3     
  16 C16            2.0815     1.6943    -1.2580 C.3     
  17 C17            1.0212     3.5669     0.0115 C.3     
  18 C18            2.1054     1.6809     1.2403 C.3     
  19 H19           -1.0984    -1.7794     0.0031 H       
  20 H20           -3.2299     1.9564     0.0447 H       
  21 H21           -7.0573    -0.2332     0.0703 H       
  22 H22           -9.1870    -1.4627     0.0841 H       
  23 H23           -9.1934    -3.9225     0.0699 H       
  24 H24           -7.0727    -5.1685     0.0430 H       
  25 H25           -4.9307    -3.9605     0.0222 H       
  26 H26            1.5028     1.9653    -2.1411 H       
  27 H27            3.0282     2.2345    -1.2642 H       
  28 H28            2.2752     0.6217    -1.2656 H       
  29 H29            0.4595     3.8283     0.9083 H       
  30 H30            1.9679     4.1071     0.0053 H       
  31 H31            0.4425     3.8379    -0.8716 H       
  32 H32            2.2990     0.6082     1.2327 H       
  33 H33            3.0521     2.2211     1.2342 H       
  34 H34            1.5437     1.9423     2.1371 H       
@<TRIPOS>BOND
   1    1    2 ar
   2    1   15 1
   3    1    6 ar
   4    2    3 ar
   5    3    4 ar
   6    3   19 1
   7    4    5 ar
   8    4    7 1
   9    5    6 ar
  10    5   20 1
  11    7    8 3
  12    8    9 1
  13    9   10 ar
  14    9   14 ar
  15   10   11 ar
  16   10   21 1
  17   11   12 ar
  18   11   22 1
  19   12   13 ar
  20   12   23 1
  21   13   14 ar
  22   13   24 1
  23   14   25 1
  24   15   16 1
  25   15   17 1
  26   15   18 1
  27   16   26 1
  28   16   27 1
  29   16   28 1
  30   17   29 1
  31   17   30 1
  32   17   31 1
  33   18   32 1
  34   18   33 1
  35   18   34 1

#	End of record

