#	Name: ASD03090268
#	Creating user name:	WinNT
#	Creation time:	15. 06. 2019 20:28

#	Modifying user name:	WinNT
#	Modification time:	15. 06. 2019 20:28

#	Program:	/corina/corina34_cracker 3.40 0067  02.08.2006

@<TRIPOS>MOLECULE
ASD03090268
  52   55    0    0    0
SMALL
NO_CHARGES


@<TRIPOS>ATOM
   1 N1             0.0023     1.1459     1.2738 N.ar    
   2 C2             0.0618    -0.1720     1.2667 C.ar    
   3 C3             1.2493    -0.8262     1.0113 C.ar    
   4 C4             2.3993    -0.0704     0.7578 C.ar    
   5 C5             2.2900     1.3240     0.7754 C.ar    
   6 C6             1.0620     1.8956     1.0400 C.ar    
   7 C7             3.6956    -0.7282     0.4792 C.2     
   8 N8             5.7116    -3.4481    -0.4652 N.pl3   
   9 C9             4.8718    -4.4989    -0.8488 C.ar    
  10 C10            3.6659    -4.2294    -1.4825 C.ar    
  11 C11            2.8381    -5.2687    -1.8604 C.ar    
  12 C12            3.2098    -6.5782    -1.6074 C.ar    
  13 C13            4.4120    -6.8493    -0.9754 C.ar    
  14 C14            5.2455    -5.8137    -0.6014 C.ar    
  15 N15            3.8640    -1.9769     0.0929 N.2     
  16 C16            5.1643    -2.2278    -0.0643 C.2     
  17 N17            5.8473    -1.1423     0.2195 N.2     
  18 N18            4.9151    -0.1525     0.5706 N.pl3   
  19 C19            5.2068     1.2278     0.9652 C.3     
  20 F20            2.3982    -7.5931    -1.9770 F       
  21 C21            5.2546     2.1016    -0.2616 C.2     
  22 N22            5.5095     3.4196    -0.1408 N.am    
  23 O23            5.0638     1.6189    -1.3578 O.2     
  24 C24           -1.1842    -0.9738     1.5419 C.3     
  25 C25            5.5848     4.3829    -1.2489 C.3     
  26 C26            5.9228     5.7590    -0.6376 C.3     
  27 C27            6.5763     5.3854     0.7191 C.3     
  28 C28            5.7526     4.1351     1.1250 C.3     
  29 C29            4.8134    -8.2756    -0.7009 C.3     
  30 F30            6.0567    -8.2950    -0.0598 F       
  31 F31            3.8557    -8.8798     0.1206 F       
  32 F32            4.9006    -8.9762    -1.9087 F       
  33 H33            1.2908    -1.9054     1.0074 H       
  34 H34            3.1536     1.9440     0.5851 H       
  35 H35            0.9674     2.9713     1.0554 H       
  36 H36            6.6741    -3.5672    -0.4777 H       
  37 H37            3.3753    -3.2081    -1.6795 H       
  38 H38            1.9002    -5.0597    -2.3533 H       
  39 H39            6.1830    -6.0256    -0.1090 H       
  40 H40            4.4266     1.5864     1.6365 H       
  41 H41            6.1696     1.2642     1.4749 H       
  42 H42           -1.7034    -1.1716     0.6041 H       
  43 H43           -0.9118    -1.9184     2.0126 H       
  44 H44           -1.8385    -0.4113     2.2078 H       
  45 H45            6.3675     4.0849    -1.9466 H       
  46 H46            4.6253     4.4315    -1.7637 H       
  47 H47            6.6278     6.2991    -1.2695 H       
  48 H48            5.0167     6.3444    -0.4810 H       
  49 H49            7.6301     5.1383     0.5903 H       
  50 H50            6.4508     6.1870     1.4471 H       
  51 H51            4.8106     4.4343     1.5847 H       
  52 H52            6.3263     3.5079     1.8073 H       
@<TRIPOS>BOND
   1    1    2 ar
   2    1    6 ar
   3    2    3 ar
   4    2   24 1
   5    3    4 ar
   6    3   33 1
   7    4    5 ar
   8    4    7 1
   9    5    6 ar
  10    5   34 1
  11    6   35 1
  12    7   15 2
  13    7   18 1
  14    8    9 1
  15    8   16 1
  16    8   36 1
  17    9   10 ar
  18    9   14 ar
  19   10   11 ar
  20   10   37 1
  21   11   12 ar
  22   11   38 1
  23   12   13 ar
  24   12   20 1
  25   13   14 ar
  26   13   29 1
  27   14   39 1
  28   15   16 1
  29   16   17 2
  30   17   18 1
  31   18   19 1
  32   19   21 1
  33   19   40 1
  34   19   41 1
  35   21   22 am
  36   21   23 2
  37   22   25 1
  38   22   28 1
  39   24   42 1
  40   24   43 1
  41   24   44 1
  42   25   26 1
  43   25   45 1
  44   25   46 1
  45   26   27 1
  46   26   47 1
  47   26   48 1
  48   27   28 1
  49   27   49 1
  50   27   50 1
  51   28   51 1
  52   28   52 1
  53   29   30 1
  54   29   31 1
  55   29   32 1

#	End of record

