#	Name: ASD01028382
#	Creating user name:	WinNT
#	Creation time:	15. 06. 2019 18:57

#	Modifying user name:	WinNT
#	Modification time:	15. 06. 2019 18:57

#	Program:	/corina/corina34_cracker 3.40 0067  02.08.2006

@<TRIPOS>MOLECULE
ASD01028382
  50   54    0    0    0
SMALL
NO_CHARGES


@<TRIPOS>ATOM
   1 C1            -0.0171     1.4118     0.0098 C.ar    
   2 C2             0.0021    -0.0041     0.0020 C.ar    
   3 C3             1.2105     2.1116     0.0018 C.ar    
   4 C4             2.3793     1.3714    -0.0133 C.ar    
   5 C5             2.3160    -0.0162    -0.0202 C.ar    
   6 N6             1.1704    -0.6565    -0.0123 N.ar    
   7 O7             1.2420     3.4670     0.0084 O.3     
   8 C8             2.5299     4.0861    -0.0005 C.3     
   9 C9             2.3673     5.5842     0.0086 C.2     
  10 N10            2.2915     6.3712     1.1039 N.pl3   
  11 C11            2.1477     7.6565     0.6383 C.2     
  12 N12            2.1436     7.5869    -0.6829 N.2     
  13 N13            2.2796     6.3587    -1.0441 N.2     
  14 N14            2.3300     6.1244     2.4777 N.2     
  15 C15            2.2296     7.1154     3.3363 C.2     
  16 C16            2.0811     8.4458     2.8892 C.2     
  17 C17            2.0407     8.7169     1.5582 C.2     
  18 C18            2.2723     6.8317     4.7912 C.ar    
  19 C19           -1.2152    -0.7043     0.0100 C.ar    
  20 C20           -2.4012    -0.0065     0.0251 C.ar    
  21 C21           -2.4085     1.3917     0.0322 C.ar    
  22 C22           -1.2431     2.0938     0.0309 C.ar    
  23 O23           -3.5786    -0.6840     0.0328 O.3     
  24 C24           -4.7758     0.0961     0.0485 C.3     
  25 C25            2.4182     5.5213     5.2429 C.ar    
  26 C26            2.4582     5.2594     6.5968 C.ar    
  27 C27            2.3530     6.2989     7.5098 C.ar    
  28 C28            2.1724     7.8761     5.7098 C.ar    
  29 O29            2.3923     6.0373     8.8428 O.3     
  30 C30            2.5438     4.6706     9.2316 C.3     
  31 C31            2.2078     7.6080     7.0633 C.ar    
  32 F32            2.1056     8.6180     7.9547 F       
  33 H33            3.3370     1.8705    -0.0202 H       
  34 H34            3.2348    -0.5838    -0.0321 H       
  35 H35            3.0883     3.7758     0.8827 H       
  36 H36            3.0716     3.7849    -0.8972 H       
  37 H37            1.9998     9.2496     3.6060 H       
  38 H38            1.9272     9.7331     1.2104 H       
  39 H39           -1.2205    -1.7843     0.0039 H       
  40 H40           -3.3501     1.9205     0.0433 H       
  41 H41           -1.2617     3.1736     0.0364 H       
  42 H42           -5.6412    -0.5666     0.0533 H       
  43 H43           -4.7911     0.7202     0.9420 H       
  44 H44           -4.8082     0.7297    -0.8378 H       
  45 H45            2.4995     4.7112     4.5334 H       
  46 H46            2.5712     4.2439     6.9465 H       
  47 H47            2.0634     8.8930     5.3626 H       
  48 H48            1.7086     4.0877     8.8433 H       
  49 H49            3.4781     4.2796     8.8287 H       
  50 H50            2.5602     4.6019    10.3193 H       
@<TRIPOS>BOND
   1    1    2 ar
   2    1    3 ar
   3    1   22 ar
   4    2   19 ar
   5    2    6 ar
   6    3    4 ar
   7    3    7 1
   8    4    5 ar
   9    4   33 1
  10    5    6 ar
  11    5   34 1
  12    7    8 1
  13    8    9 1
  14    8   35 1
  15    8   36 1
  16    9   10 1
  17    9   13 2
  18   10   11 1
  19   10   14 1
  20   11   12 2
  21   11   17 1
  22   12   13 1
  23   14   15 2
  24   15   16 1
  25   15   18 1
  26   16   17 2
  27   16   37 1
  28   17   38 1
  29   18   25 ar
  30   18   28 ar
  31   19   20 ar
  32   19   39 1
  33   20   21 ar
  34   20   23 1
  35   21   22 ar
  36   21   40 1
  37   22   41 1
  38   23   24 1
  39   24   42 1
  40   24   43 1
  41   24   44 1
  42   25   26 ar
  43   25   45 1
  44   26   27 ar
  45   26   46 1
  46   27   31 ar
  47   27   29 1
  48   28   31 ar
  49   28   47 1
  50   29   30 1
  51   30   48 1
  52   30   49 1
  53   30   50 1
  54   31   32 1

#	End of record

