#	Name: ASD01884943
#	Creating user name:	WinNT
#	Creation time:	15. 06. 2019 19:49

#	Modifying user name:	WinNT
#	Modification time:	15. 06. 2019 19:49

#	Program:	/corina/corina34_cracker 3.40 0067  02.08.2006

@<TRIPOS>MOLECULE
ASD01884943
  47   51    0    0    0
SMALL
NO_CHARGES


@<TRIPOS>ATOM
   1 C1            -0.0166     1.3757     0.0096 C.ar    
   2 C2             0.0021    -0.0041     0.0020 C.ar    
   3 C3             1.2206    -0.6820    -0.0132 C.ar    
   4 C4             2.4137     0.0399    -0.0207 C.ar    
   5 C5             2.3822     1.4194    -0.0130 C.ar    
   6 C6             1.1703     2.0864     0.0021 C.ar    
   7 C7             1.2476    -2.1635    -0.0210 C.2     
   8 C8             1.7541    -2.8471    -1.1112 C.2     
   9 C9             0.7603    -2.8934     1.0904 C.2     
  10 C10            0.7864    -4.2392     1.0820 C.2     
  11 N11            1.2803    -4.9231     0.0082 N.pl3   
  12 C12            1.7665    -4.2534    -1.0884 C.2     
  13 Cl13           2.3648    -1.9827    -2.4873 Cl      
  14 C14            1.4272    -6.2474    -0.2700 C.2     
  15 N15            1.9629    -6.3433    -1.4597 N.2     
  16 N16            2.1684    -5.1726    -1.9525 N.2     
  17 C17            1.0428    -7.3944     0.6288 C.3     
  18 C18            0.0143    -8.2566    -0.0761 C.3     
  19 C19           -0.6071    -9.3302     0.7953 C.3     
  20 C20            0.4225   -10.4025     1.1601 C.3     
  21 C21            1.1804    -9.9413     2.3878 C.ar    
  22 C22            2.0670    -8.9002     2.2984 C.ar    
  23 C23            2.2945    -8.2061     0.9717 C.3     
  24 C24            0.9708   -10.5790     3.5980 C.ar    
  25 C25            1.6617   -10.1594     4.7201 C.ar    
  26 C26            2.5562    -9.1090     4.6301 C.ar    
  27 C27            2.7610    -8.4756     3.4180 C.ar    
  28 H28           -0.9598     1.9018     0.0169 H       
  29 H29           -0.9251    -0.5578     0.0082 H       
  30 H30            3.3604    -0.4796    -0.0322 H       
  31 H31            3.3056     1.9796    -0.0188 H       
  32 H32            1.1506     3.1662     0.0077 H       
  33 H33            0.3666    -2.3683     1.9482 H       
  34 H34            0.4123    -4.7850     1.9356 H       
  35 H35            0.6099    -6.9995     1.5479 H       
  36 H36           -0.7808    -7.6110    -0.4490 H       
  37 H37            0.4927    -8.7377    -0.9291 H       
  38 H38           -0.9881    -8.8739     1.7089 H       
  39 H39           -1.4329    -9.7950     0.2568 H       
  40 H40           -0.0872   -11.3416     1.3755 H       
  41 H41            1.1169   -10.5407     0.3314 H       
  42 H42            2.4733    -8.9498     0.1951 H       
  43 H43            3.1534    -7.5395     1.0495 H       
  44 H44            0.2716   -11.3992     3.6658 H       
  45 H45            1.5026   -10.6530     5.6675 H       
  46 H46            3.0950    -8.7826     5.5073 H       
  47 H47            3.4593    -7.6550     3.3452 H       
@<TRIPOS>BOND
   1    1    2 ar
   2    1    6 ar
   3    1   28 1
   4    2    3 ar
   5    2   29 1
   6    3    4 ar
   7    3    7 1
   8    4    5 ar
   9    4   30 1
  10    5    6 ar
  11    5   31 1
  12    6   32 1
  13    7    8 2
  14    7    9 1
  15    8   13 1
  16    8   12 1
  17    9   10 2
  18    9   33 1
  19   10   11 1
  20   10   34 1
  21   11   12 1
  22   11   14 1
  23   12   16 2
  24   14   15 2
  25   14   17 1
  26   15   16 1
  27   17   18 1
  28   17   23 1
  29   17   35 1
  30   18   19 1
  31   18   36 1
  32   18   37 1
  33   19   20 1
  34   19   38 1
  35   19   39 1
  36   20   21 1
  37   20   40 1
  38   20   41 1
  39   21   22 ar
  40   21   24 ar
  41   22   23 1
  42   22   27 ar
  43   23   42 1
  44   23   43 1
  45   24   25 ar
  46   24   44 1
  47   25   26 ar
  48   25   45 1
  49   26   27 ar
  50   26   46 1
  51   27   47 1

#	End of record

