#	Name: ASD01140245
#	Creating user name:	WinNT
#	Creation time:	15. 06. 2019 19:00

#	Modifying user name:	WinNT
#	Modification time:	15. 06. 2019 19:00

#	Program:	/corina/corina34_cracker 3.40 0067  02.08.2006

@<TRIPOS>MOLECULE
ASD01140245
  79   84    0    0    0
SMALL
NO_CHARGES


@<TRIPOS>ATOM
   1 C1             0.8654     2.7919    -0.2975 C.2     
   2 C2             0.5458     1.4813    -0.4502 C.2     
   3 S3             1.9996     0.5010    -0.3737 S.3     
   4 C4             3.0043     1.9293    -0.1318 C.2     
   5 C5             2.2151     3.0598    -0.1217 C.2     
   6 C6             4.4628     1.8863     0.0334 C.2     
   7 N7             5.1015     2.6686     0.8480 N.2     
   8 C8             4.4030     3.6305     1.6957 C.3     
   9 C9             3.7171     4.6649     0.8529 C.2     
  10 N10            2.6987     4.3728     0.0452 N.am    
  11 C11           -0.7794     0.9744    -0.6438 C.1     
  12 C12            2.0568     5.4592    -0.6990 C.3     
  13 O13            4.1051     5.8126     0.9094 O.2     
  14 O14            6.2848     0.1612    10.2843 O.2     
  15 C15            5.4763     1.0500    10.4506 C.2     
  16 N16            5.8459     2.3052    10.2026 N.am    
  17 C17            7.1951     2.5528     9.6882 C.3     
  18 C18            4.0979     0.6909    10.9215 C.3     
  19 N19            3.8664     1.2213    12.2618 N.2     
  20 C20            3.8427     2.4972    12.4965 C.2     
  21 C21            4.0841     3.5026    11.4539 C.2     
  22 C22            4.9904     3.4045    10.4151 C.2     
  23 S23            3.2268     5.0397    11.3529 S.3     
  24 C24            4.1222     5.4961     9.9140 C.2     
  25 C25            4.9942     4.5121     9.5799 C.2     
  26 C26            3.9557     6.7237     9.1958 C.1     
  27 C27           -1.8659     0.5589    -0.8026 C.1     
  28 C28            3.8192     7.7301     8.6069 C.1     
  29 C29            3.5591     2.9597    13.8762 C.ar    
  30 C30            3.9462     4.2369    14.2795 C.ar    
  31 C31            3.6792     4.6622    15.5649 C.ar    
  32 C32            3.0288     3.8238    16.4526 C.ar    
  33 C33            2.6428     2.5553    16.0582 C.ar    
  34 C34            2.8993     2.1212    14.7737 C.ar    
  35 C35            5.2387     0.9067    -0.7643 C.ar    
  36 C36            6.5105     0.5158    -0.3478 C.ar    
  37 C37            7.2278    -0.3967    -1.0942 C.ar    
  38 C38            6.6873    -0.9233    -2.2536 C.ar    
  39 C39            5.4261    -0.5388    -2.6721 C.ar    
  40 C40            4.6971     0.3686    -1.9309 C.ar    
  41 C41            1.9143     2.7232     4.4026 C.3     
  42 O42            2.5637     1.6635     5.1078 O.3     
  43 C43            3.2981     2.0936     6.2557 C.3     
  44 O44            2.3889     2.4080     7.3124 O.3     
  45 C45            1.8203     1.2624     7.9500 C.3     
  46 C46            3.3778     2.9074     2.5307 C.2     
  47 O47            2.8993     3.4772     3.6478 O.3     
  48 O48            2.9866     1.8148     2.1945 O.2     
  49 C49            3.0800     1.2700     9.9731 C.2     
  50 O50            2.8118     0.6476     8.8144 O.3     
  51 O51            2.5053     2.2946    10.2556 O.2     
  52 H52            0.1200     3.5732    -0.3161 H       
  53 H53            5.1210     4.1195     2.3539 H       
  54 H54            2.5466     6.4029    -0.4592 H       
  55 H55            2.1423     5.2670    -1.7685 H       
  56 H56            1.0038     5.5160    -0.4231 H       
  57 H57            7.7227     1.6050     9.5812 H       
  58 H58            7.1293     3.0437     8.7172 H       
  59 H59            7.7371     3.1938    10.3835 H       
  60 H60            3.9941    -0.3940    10.9399 H       
  61 H61            5.6460     4.5852     8.7219 H       
  62 H62           -2.8376     0.1872    -0.9446 H       
  63 H63            3.6971     8.6303     8.0803 H       
  64 H64            4.4543     4.8921    13.5875 H       
  65 H65            3.9788     5.6512    15.8786 H       
  66 H66            2.8219     4.1609    17.4576 H       
  67 H67            2.1360     1.9049    16.7558 H       
  68 H68            2.5972     1.1308    14.4668 H       
  69 H69            6.9335     0.9265     0.5570 H       
  70 H70            8.2132    -0.7001    -0.7727 H       
  71 H71            7.2524    -1.6372    -2.8346 H       
  72 H72            5.0095    -0.9527    -3.5785 H       
  73 H73            3.7124     0.6679    -2.2584 H       
  74 H74            1.1750     2.3054     3.7193 H       
  75 H75            1.4189     3.3833     5.1145 H       
  76 H76            3.9681     1.2966     6.5780 H       
  77 H77            3.8816     2.9789     6.0030 H       
  78 H78            0.9591     1.5675     8.5445 H       
  79 H79            1.5035     0.5451     7.1929 H       
@<TRIPOS>BOND
   1    1    2 2
   2    1    5 1
   3    1   52 1
   4    2    3 1
   5    2   11 1
   6    3    4 1
   7    4    5 2
   8    4    6 1
   9    5   10 1
  10    6    7 2
  11    6   35 1
  12    7    8 1
  13    8    9 1
  14    8   46 1
  15    8   53 1
  16    9   10 am
  17    9   13 2
  18   10   12 1
  19   11   27 3
  20   12   54 1
  21   12   55 1
  22   12   56 1
  23   14   15 2
  24   15   16 am
  25   15   18 1
  26   16   17 1
  27   16   22 1
  28   17   57 1
  29   17   58 1
  30   17   59 1
  31   18   19 1
  32   18   49 1
  33   18   60 1
  34   19   20 2
  35   20   21 1
  36   20   29 1
  37   21   22 2
  38   21   23 1
  39   22   25 1
  40   23   24 1
  41   24   25 2
  42   24   26 1
  43   25   61 1
  44   26   28 3
  45   27   62 1
  46   28   63 1
  47   29   30 ar
  48   29   34 ar
  49   30   31 ar
  50   30   64 1
  51   31   32 ar
  52   31   65 1
  53   32   33 ar
  54   32   66 1
  55   33   34 ar
  56   33   67 1
  57   34   68 1
  58   35   36 ar
  59   35   40 ar
  60   36   37 ar
  61   36   69 1
  62   37   38 ar
  63   37   70 1
  64   38   39 ar
  65   38   71 1
  66   39   40 ar
  67   39   72 1
  68   40   73 1
  69   41   42 1
  70   41   47 1
  71   41   74 1
  72   41   75 1
  73   42   43 1
  74   43   44 1
  75   43   76 1
  76   43   77 1
  77   44   45 1
  78   45   50 1
  79   45   78 1
  80   45   79 1
  81   46   47 1
  82   46   48 2
  83   49   50 1
  84   49   51 2

#	End of record

