#	Name: ASD01150981
#	Creating user name:	WinNT
#	Creation time:	15. 06. 2019 19:05

#	Modifying user name:	WinNT
#	Modification time:	15. 06. 2019 19:05

#	Program:	/corina/corina34_cracker 3.40 0067  02.08.2006

@<TRIPOS>MOLECULE
ASD01150981
  50   53    0    0    0
SMALL
NO_CHARGES


@<TRIPOS>ATOM
   1 C1            -0.0154     1.2819     0.0091 C.2     
   2 N2             0.0021    -0.0041     0.0020 N.2     
   3 C3            -1.1910    -0.6077     0.0102 C.2     
   4 C4            -2.2604     0.2526     0.0250 C.2     
   5 S5            -1.6766     1.8598     0.0357 S.3     
   6 C6             1.2069     2.1635     0.0022 C.3     
   7 N7            -3.5949    -0.1204     0.0350 N.am    
   8 C8            -1.3438    -2.0643     0.0030 C.2     
   9 O9            -2.4549    -2.5593     0.0105 O.2     
  10 O10           -0.2524    -2.8569    -0.0119 O.3     
  11 C11           -0.4793    -4.2911    -0.0182 C.3     
  12 C12            0.8657    -5.0201    -0.0352 C.3     
  13 C13           -4.5580     0.8223     0.0493 C.2     
  14 C14           -6.0094     0.4167     0.0602 C.3     
  15 O15           -4.2567     1.9971     0.0535 O.2     
  16 C16            2.0694     1.8784     1.2441 C.3     
  17 C17            3.4398     1.3938     0.7272 C.3     
  18 C18            3.5348     1.9795    -0.7036 C.3     
  19 C19            2.0832     1.8422    -1.2262 C.3     
  20 C20           -6.3316    -0.3184     1.3683 C.3     
  21 O21           -7.7176    -0.6770     1.3511 O.3     
  22 C22           -8.5947     0.2895     0.9650 C.ar    
  23 C23           -8.1554     1.4166     0.2809 C.ar    
  24 O24           -6.8371     1.5825    -0.0143 O.3     
  25 C25           -9.9422     0.1432     1.2597 C.ar    
  26 C26          -10.8452     1.1148     0.8721 C.ar    
  27 C27          -10.4085     2.2348     0.1891 C.ar    
  28 C28           -9.0672     2.3875    -0.1062 C.ar    
  29 H29            0.9104     3.2123    -0.0138 H       
  30 H30           -3.8359    -1.0600     0.0316 H       
  31 H31           -1.0352    -4.5749     0.8754 H       
  32 H32           -1.0520    -4.5644    -0.9045 H       
  33 H33            1.4383    -4.7468     0.8511 H       
  34 H34            0.6954    -6.0967    -0.0399 H       
  35 H35            1.4216    -4.7363    -0.9288 H       
  36 H36           -6.2150    -0.2358    -0.7884 H       
  37 H37            2.1923     2.7890     1.8304 H       
  38 H38            1.6040     1.1024     1.8519 H       
  39 H39            4.2429     1.7832     1.3529 H       
  40 H40            3.4726     0.3048     0.6966 H       
  41 H41            3.8370     3.0263    -0.6732 H       
  42 H42            4.2224     1.3954    -1.3152 H       
  43 H43            1.8969     0.8255    -1.5723 H       
  44 H44            1.8963     2.5587    -2.0260 H       
  45 H45           -5.7202    -1.2175     1.4450 H       
  46 H46           -6.1317     0.3362     2.2166 H       
  47 H47          -10.2860    -0.7312     1.7923 H       
  48 H48          -11.8939     0.9989     1.1027 H       
  49 H49          -11.1169     2.9916    -0.1138 H       
  50 H50           -8.7286     3.2633    -0.6398 H       
@<TRIPOS>BOND
   1    1    2 2
   2    1    6 1
   3    1    5 1
   4    2    3 1
   5    3    4 2
   6    3    8 1
   7    4    5 1
   8    4    7 1
   9    6   16 1
  10    6   19 1
  11    6   29 1
  12    7   13 am
  13    7   30 1
  14    8    9 2
  15    8   10 1
  16   10   11 1
  17   11   12 1
  18   11   31 1
  19   11   32 1
  20   12   33 1
  21   12   34 1
  22   12   35 1
  23   13   14 1
  24   13   15 2
  25   14   20 1
  26   14   24 1
  27   14   36 1
  28   16   17 1
  29   16   37 1
  30   16   38 1
  31   17   18 1
  32   17   39 1
  33   17   40 1
  34   18   19 1
  35   18   41 1
  36   18   42 1
  37   19   43 1
  38   19   44 1
  39   20   21 1
  40   20   45 1
  41   20   46 1
  42   21   22 1
  43   22   23 ar
  44   22   25 ar
  45   23   24 1
  46   23   28 ar
  47   25   26 ar
  48   25   47 1
  49   26   27 ar
  50   26   48 1
  51   27   28 ar
  52   27   49 1
  53   28   50 1

#	End of record

