#	Name: ASD00170290
#	Creating user name:	WinNT
#	Creation time:	15. 06. 2019 18:31

#	Modifying user name:	WinNT
#	Modification time:	15. 06. 2019 18:31

#	Program:	/corina/corina34_cracker 3.40 0067  02.08.2006

@<TRIPOS>MOLECULE
ASD00170290
  30   32    0    0    0
SMALL
NO_CHARGES


@<TRIPOS>ATOM
   1 C1            -0.1332     1.2947    -0.1121 C.2     
   2 C2            -0.0357    -0.0662     0.0019 C.2     
   3 C3            -1.3213    -0.7232     0.1569 C.2     
   4 C4            -2.3402     0.1432     0.1563 C.2     
   5 S5            -1.7596     1.7903    -0.0268 S.3     
   6 C6             1.2399    -0.7884    -0.0301 C.2     
   7 C7             1.7830    -1.2611    -1.3076 C.2     
   8 O8             1.8491    -0.9959     1.0055 O.2     
   9 N9             0.9415     2.1491    -0.2690 N.pl3   
  10 S10            1.0093    -1.0758    -2.8755 S.3     
  11 C11            2.2986    -1.8730    -3.6585 C.2     
  12 C12            3.2374    -2.2448    -2.7777 C.2     
  13 C13            2.9744    -1.9108    -1.4705 C.2     
  14 Cl14           2.3826    -2.1642    -5.3679 Cl      
  15 C15           -1.4974    -2.2263     0.3030 C.3     
  16 C16           -2.8942    -2.5069     0.8615 C.3     
  17 C17           -3.9314    -1.7512     0.0254 C.3     
  18 C18           -3.7976    -0.2511     0.3015 C.3     
  19 H19            1.8466     1.8028    -0.2274 H       
  20 H20            0.7907     3.0953    -0.4207 H       
  21 H21            4.1363    -2.7651    -3.0736 H       
  22 H22            3.6395    -2.1451    -0.6525 H       
  23 H23           -1.3909    -2.7031    -0.6714 H       
  24 H24           -0.7447    -2.6175     0.9876 H       
  25 H25           -3.0973    -3.5768     0.8138 H       
  26 H26           -2.9465    -2.1712     1.8972 H       
  27 H27           -3.7574    -1.9445    -1.0331 H       
  28 H28           -4.9327    -2.0843     0.2985 H       
  29 H29           -4.1362    -0.0343     1.3146 H       
  30 H30           -4.4001     0.3075    -0.4149 H       
@<TRIPOS>BOND
   1    1    2 2
   2    1    9 1
   3    1    5 1
   4    2    3 1
   5    2    6 1
   6    3    4 2
   7    3   15 1
   8    4    5 1
   9    4   18 1
  10    6    7 1
  11    6    8 2
  12    7   10 1
  13    7   13 2
  14    9   19 1
  15    9   20 1
  16   10   11 1
  17   11   12 2
  18   11   14 1
  19   12   13 1
  20   12   21 1
  21   13   22 1
  22   15   16 1
  23   15   23 1
  24   15   24 1
  25   16   17 1
  26   16   25 1
  27   16   26 1
  28   17   18 1
  29   17   27 1
  30   17   28 1
  31   18   29 1
  32   18   30 1

#	End of record

