#	Name: ASD01478096
#	Creating user name:	WinNT
#	Creation time:	15. 06. 2019 19:21

#	Modifying user name:	WinNT
#	Modification time:	15. 06. 2019 19:21

#	Program:	/corina/corina34_cracker 3.40 0067  02.08.2006

@<TRIPOS>MOLECULE
ASD01478096
 144  148    0    0    0
SMALL
NO_CHARGES


@<TRIPOS>ATOM
   1 C1            -0.0774     6.3297     0.1774 C.3     
   2 C2             0.9934     5.2561    -0.0268 C.3     
   3 O3             0.8055     4.2085     0.9267 O.3     
   4 C4             1.9258     3.9996     1.7889 C.3     
   5 C5             1.5070     4.2502     3.2390 C.3     
   6 S6             2.3907     5.6980     3.8820 S.o2    
   7 C7             1.0630     6.9293     3.9912 C.3     
   8 C8             1.2611     7.9903     2.9068 C.3     
   9 O9             0.1806     7.9254     1.9739 O.3     
  10 C10            0.5853     7.6304     0.6355 C.3     
  11 O11            2.8450     5.4044     5.1960 O.2     
  12 O12            3.3275     6.1279     2.9038 O.2     
  13 C13           -1.8273     7.4016    -1.0412 C.2     
  14 N14           -2.5729     7.5925    -2.1476 N.am    
  15 O15           -2.1018     7.9906    -0.0144 O.2     
  16 O16           -0.7784     6.5581    -1.0735 O.3     
  17 C17           -3.7707     8.4340    -2.0875 C.3     
  18 C18           -4.8922     7.7835    -2.8999 C.3     
  19 C19           -6.1689     8.6156    -2.7642 C.3     
  20 N20           -7.2732     7.9293    -3.4392 N.am    
  21 S21           -8.2725     6.9257    -2.5810 S.o2    
  22 O22           -8.8388     6.0233    -3.5214 O.2     
  23 O23           -7.5340     6.5009    -1.4437 O.2     
  24 C24           -9.6017     7.9091    -1.9723 C.ar    
  25 C25          -10.7478     8.0654    -2.7299 C.ar    
  26 C26          -11.7914     8.8359    -2.2549 C.ar    
  27 C27          -11.6888     9.4532    -1.0167 C.ar    
  28 C28          -10.5378     9.2948    -0.2586 C.ar    
  29 C29           -9.4993     8.5187    -0.7355 C.ar    
  30 O30          -12.7138    10.2121    -0.5474 O.3     
  31 C31          -12.5386    10.8175     0.7351 C.3     
  32 C32           -7.4935     8.1307    -4.8735 C.3     
  33 C33           -7.8457     9.5966    -5.1344 C.3     
  34 C34           -7.9647     9.8321    -6.6415 C.3     
  35 C35           -9.1780     9.9289    -4.4595 C.3     
  36 O36           -4.5089     7.7198    -4.2751 O.3     
  37 C37           -3.4544     9.8136    -2.6684 C.3     
  38 C38           -2.4613    10.5172    -1.7797 C.ar    
  39 C39           -1.1055    10.3675    -2.0040 C.ar    
  40 C40           -0.1947    11.0128    -1.1887 C.ar    
  41 C41           -0.6395    11.8083    -0.1494 C.ar    
  42 C42           -1.9953    11.9588     0.0743 C.ar    
  43 C43           -2.9063    11.3169    -0.7436 C.ar    
  44 C44           -1.8464     4.8760     0.8510 C.2     
  45 N45           -2.7249     4.3948     1.7527 N.am    
  46 O46           -1.7988     4.3987    -0.2655 O.2     
  47 O47           -1.0215     5.8856     1.1872 O.3     
  48 C48           -3.6154     3.2895     1.3901 C.3     
  49 C49           -4.9312     3.4212     2.1596 C.3     
  50 C50           -5.9072     2.3406     1.6898 C.3     
  51 N51           -7.1755     2.4818     2.4094 N.am    
  52 S52           -7.6745     1.2931     3.4487 S.o2    
  53 O53           -9.0870     1.4135     3.5475 O.2     
  54 O54           -7.0233     0.0995     3.0357 O.2     
  55 C55           -7.0290     1.6869     5.0402 C.ar    
  56 C56           -7.7654     2.4711     5.9089 C.ar    
  57 C57           -7.2615     2.7813     7.1572 C.ar    
  58 C58           -6.0155     2.3053     7.5389 C.ar    
  59 C59           -5.2786     1.5187     6.6654 C.ar    
  60 C60           -5.7894     1.2067     5.4203 C.ar    
  61 O61           -5.5174     2.6094     8.7662 O.3     
  62 C62           -4.2285     2.0851     9.0914 C.3     
  63 C63           -8.0022     3.6746     2.2095 C.3     
  64 C64           -8.7357     3.5682     0.8710 C.3     
  65 C65           -9.7191     2.3971     0.9200 C.3     
  66 C66           -9.5010     4.8660     0.6043 C.3     
  67 O67           -4.6831     3.2635     3.5580 O.3     
  68 C68           -2.9480     1.9593     1.7451 C.3     
  69 C69           -1.8492     1.6688     0.7554 C.ar    
  70 C70           -0.5322     1.9214     1.0910 C.ar    
  71 C71            0.4757     1.6549     0.1832 C.ar    
  72 C72            0.1666     1.1354    -1.0600 C.ar    
  73 C73           -1.1503     0.8819    -1.3952 C.ar    
  74 C74           -2.1578     1.1443    -0.4858 C.ar    
  75 H75            0.9122     4.8490    -1.0347 H       
  76 H76            1.9808     5.6975     0.1082 H       
  77 H77            2.2781     2.9733     1.6847 H       
  78 H78            2.7263     4.6879     1.5178 H       
  79 H79            0.4330     4.4319     3.2808 H       
  80 H80            1.7515     3.3770     3.8439 H       
  81 H81            0.1001     6.4390     3.8482 H       
  82 H82            1.0872     7.4036     4.9723 H       
  83 H83            1.2859     8.9787     3.3658 H       
  84 H84            2.2015     7.8074     2.3870 H       
  85 H85            1.6689     7.5182     0.6000 H       
  86 H86            0.2824     8.4441    -0.0234 H       
  87 H87           -2.3164     7.1729    -2.9836 H       
  88 H88           -4.0882     8.5406    -1.0503 H       
  89 H89           -5.0739     6.7757    -2.5264 H       
  90 H90           -6.4102     8.7413    -1.7087 H       
  91 H91           -6.0155     9.5934    -3.2208 H       
  92 H92          -10.8271     7.5849    -3.6938 H       
  93 H93          -12.6863     8.9580    -2.8471 H       
  94 H94          -10.4554     9.7744     0.7056 H       
  95 H95           -8.6049     8.3912    -0.1436 H       
  96 H96          -13.4282    11.3936     0.9895 H       
  97 H97          -12.3815    10.0418     1.4846 H       
  98 H98          -11.6725    11.4787     0.7095 H       
  99 H99           -6.5866     7.8721    -5.4202 H       
 100 H100          -8.3132     7.4950    -5.2080 H       
 101 H101          -7.0627    10.2364    -4.7274 H       
 102 H102          -8.7477     9.1922    -7.0485 H       
 103 H103          -8.2157    10.8764    -6.8274 H       
 104 H104          -7.0156     9.5953    -7.1223 H       
 105 H105          -9.9390     9.2220    -4.7901 H       
 106 H106          -9.0642     9.8607    -3.3776 H       
 107 H107          -9.4799    10.9407    -4.7300 H       
 108 H108          -4.4149     8.5846    -4.6976 H       
 109 H109          -3.0315     9.6994    -3.6665 H       
 110 H110          -4.3701    10.4019    -2.7269 H       
 111 H111          -0.7580     9.7460    -2.8160 H       
 112 H112           0.8646    10.8953    -1.3635 H       
 113 H113           0.0721    12.3120     0.4880 H       
 114 H114          -2.3429    12.5801     0.8865 H       
 115 H115          -3.9656    11.4374    -0.5711 H       
 116 H116          -2.7675     4.7803     2.6418 H       
 117 H117          -3.8161     3.3210     0.3192 H       
 118 H118          -5.3627     4.4052     1.9758 H       
 119 H119          -6.0825     2.4498     0.6196 H       
 120 H120          -5.4835     1.3565     1.8900 H       
 121 H121          -8.7351     2.8416     5.6112 H       
 122 H122          -7.8369     3.3941     7.8353 H       
 123 H123          -4.3084     1.1470     6.9602 H       
 124 H124          -5.2183     0.5904     4.7418 H       
 125 H125          -3.9504     2.4020    10.0965 H       
 126 H126          -4.2579     0.9963     9.0488 H       
 127 H127          -3.4941     2.4569     8.3769 H       
 128 H128          -8.7298     3.7519     3.0174 H       
 129 H129          -7.3672     4.5605     2.2064 H       
 130 H130          -8.0125     3.4023     0.0725 H       
 131 H131         -10.2417     2.3214    -0.0336 H       
 132 H132          -9.1739     1.4726     1.1100 H       
 133 H133         -10.4423     2.5631     1.7184 H       
 134 H134          -8.8005     5.7003     0.5694 H       
 135 H135         -10.0236     4.7902    -0.3493 H       
 136 H136         -10.2242     5.0319     1.4028 H       
 137 H137          -4.2981     2.4088     3.7952 H       
 138 H138          -2.5264     2.0207     2.7484 H       
 139 H139          -3.6887     1.1605     1.7104 H       
 140 H140          -0.2907     2.3273     2.0623 H       
 141 H141           1.5045     1.8529     0.4451 H       
 142 H142           0.9540     0.9279    -1.7694 H       
 143 H143          -1.3918     0.4764    -2.3666 H       
 144 H144          -3.1864     0.9429    -0.7463 H       
@<TRIPOS>BOND
   1    1    2 1
   2    1   10 1
   3    1   16 1
   4    1   47 1
   5    2    3 1
   6    2   75 1
   7    2   76 1
   8    3    4 1
   9    4    5 1
  10    4   77 1
  11    4   78 1
  12    5    6 1
  13    5   79 1
  14    5   80 1
  15    6    7 1
  16    6   11 2
  17    6   12 2
  18    7    8 1
  19    7   81 1
  20    7   82 1
  21    8    9 1
  22    8   83 1
  23    8   84 1
  24    9   10 1
  25   10   85 1
  26   10   86 1
  27   13   14 am
  28   13   15 2
  29   13   16 1
  30   14   17 1
  31   14   87 1
  32   17   18 1
  33   17   37 1
  34   17   88 1
  35   18   19 1
  36   18   36 1
  37   18   89 1
  38   19   20 1
  39   19   90 1
  40   19   91 1
  41   20   21 am
  42   20   32 1
  43   21   22 2
  44   21   23 2
  45   21   24 1
  46   24   25 ar
  47   24   29 ar
  48   25   26 ar
  49   25   92 1
  50   26   27 ar
  51   26   93 1
  52   27   28 ar
  53   27   30 1
  54   28   29 ar
  55   28   94 1
  56   29   95 1
  57   30   31 1
  58   31   96 1
  59   31   97 1
  60   31   98 1
  61   32   33 1
  62   32   99 1
  63   32  100 1
  64   33   34 1
  65   33   35 1
  66   33  101 1
  67   34  102 1
  68   34  103 1
  69   34  104 1
  70   35  105 1
  71   35  106 1
  72   35  107 1
  73   36  108 1
  74   37   38 1
  75   37  109 1
  76   37  110 1
  77   38   39 ar
  78   38   43 ar
  79   39   40 ar
  80   39  111 1
  81   40   41 ar
  82   40  112 1
  83   41   42 ar
  84   41  113 1
  85   42   43 ar
  86   42  114 1
  87   43  115 1
  88   44   45 am
  89   44   46 2
  90   44   47 1
  91   45   48 1
  92   45  116 1
  93   48   49 1
  94   48   68 1
  95   48  117 1
  96   49   50 1
  97   49   67 1
  98   49  118 1
  99   50   51 1
 100   50  119 1
 101   50  120 1
 102   51   52 am
 103   51   63 1
 104   52   53 2
 105   52   54 2
 106   52   55 1
 107   55   56 ar
 108   55   60 ar
 109   56   57 ar
 110   56  121 1
 111   57   58 ar
 112   57  122 1
 113   58   59 ar
 114   58   61 1
 115   59   60 ar
 116   59  123 1
 117   60  124 1
 118   61   62 1
 119   62  125 1
 120   62  126 1
 121   62  127 1
 122   63   64 1
 123   63  128 1
 124   63  129 1
 125   64   65 1
 126   64   66 1
 127   64  130 1
 128   65  131 1
 129   65  132 1
 130   65  133 1
 131   66  134 1
 132   66  135 1
 133   66  136 1
 134   67  137 1
 135   68   69 1
 136   68  138 1
 137   68  139 1
 138   69   70 ar
 139   69   74 ar
 140   70   71 ar
 141   70  140 1
 142   71   72 ar
 143   71  141 1
 144   72   73 ar
 145   72  142 1
 146   73   74 ar
 147   73  143 1
 148   74  144 1

#	End of record

