#	Name: ASD00843960
#	Creating user name:	WinNT
#	Creation time:	15. 06. 2019 18:48

#	Modifying user name:	WinNT
#	Modification time:	15. 06. 2019 18:48

#	Program:	/corina/corina34_cracker 3.40 0067  02.08.2006

@<TRIPOS>MOLECULE
ASD00843960
  95  100    0    0    0
SMALL
NO_CHARGES


@<TRIPOS>ATOM
   1 F1            -0.0973    -3.1246     4.7250 F       
   2 N2            -0.0159     1.3183     0.0093 N.ar    
   3 C3             0.0021    -0.0041     0.0020 C.ar    
   4 C4             1.2069    -0.6955    -0.0132 C.ar    
   5 C5             2.3925     0.0180    -0.0207 C.ar    
   6 C6             2.3308     1.4049    -0.0127 C.ar    
   7 C7             1.0980     2.0259     0.0025 C.ar    
   8 C8             1.2224    -2.2024    -0.0209 C.3     
   9 C9             0.4764    -2.7341    -1.2259 C.2     
  10 O10            2.5880    -2.6957    -0.0100 O.3     
  11 C11            3.3812    -2.3219    -1.0317 C.2     
  12 N12            4.6598    -2.7450    -1.0818 N.am    
  13 O13            2.9442    -1.6031    -1.9086 O.2     
  14 C14            5.5433    -2.3485    -2.1889 C.3     
  15 C15            6.8402    -1.7847    -1.5987 C.3     
  16 N16            7.4150    -2.7623    -0.6649 N.3     
  17 C17            6.5189    -3.0017     0.4742 C.3     
  18 C18            5.2105    -3.6104    -0.0278 C.3     
  19 C19            8.7444    -2.3355    -0.2083 C.3     
  20 C20            9.2578    -3.3108     0.8546 C.3     
  21 C21           10.6675    -2.8960     1.2821 C.3     
  22 N22           11.5571    -2.9044     0.1138 N.3     
  23 C23           11.1107    -1.9410    -0.9005 C.3     
  24 C24            9.7142    -2.3273    -1.3932 C.3     
  25 C25           12.9480    -2.6459     0.5093 C.3     
  26 O26            0.7566    -2.5392    -2.3898 O.2     
  27 N27           -0.5539    -3.4627    -0.7649 N.am    
  28 C28            0.4505    -2.7460     1.1600 C.ar    
  29 C29           -0.5988    -3.4907     0.6311 C.ar    
  30 C30            0.6193    -2.6223     2.5215 C.ar    
  31 C31           -0.2615    -3.2439     3.3894 C.ar    
  32 C32           -1.3224    -3.9967     2.8756 C.ar    
  33 C33           -1.4874    -4.1183     1.4962 C.ar    
  34 C34           -1.0160    -5.8566    -2.0415 C.ar    
  35 C35            0.1623    -6.0214    -2.7548 C.ar    
  36 C36           -1.6929    -6.9621    -1.5633 C.ar    
  37 C37           -1.1966    -8.2315    -1.7946 C.ar    
  38 C38           -0.0222    -8.3983    -2.5054 C.ar    
  39 C39            0.6580    -7.2965    -2.9861 C.ar    
  40 H40            0.3634    -9.3910    -2.6849 H       
  41 O41            0.8297    -4.9356    -3.2267 O.3     
  42 C42            2.0360    -5.1806    -3.9525 C.3     
  43 C43            2.6412    -3.8487    -4.4004 C.3     
  44 C44           13.8597    -2.7855    -0.7114 C.3     
  45 C45           13.0630    -1.2278     1.0722 C.3     
  46 C46           -2.2386    -4.6434     3.7661 C.1     
  47 N47           -2.9655    -5.1564     4.4724 N.1     
  48 S48           -1.6450    -4.2387    -1.7395 S.o2    
  49 O49           -2.8259    -4.4051    -0.9668 O.2     
  50 O50           -1.6221    -3.5598    -2.9876 O.2     
  51 O51           -1.1673    -0.6919     0.0099 O.3     
  52 C52           -2.3720     0.0766     0.0260 C.3     
  53 C53           -3.5777    -0.8652     0.0330 C.3     
  54 F54           -3.5507    -1.6659    -1.1140 F       
  55 F55           -3.5280    -1.6782     1.1704 F       
  56 H56            3.3442    -0.4925    -0.0322 H       
  57 H57            3.2375     1.9916    -0.0178 H       
  58 H58            1.0444     3.1046     0.0084 H       
  59 H59            5.7695    -3.2179    -2.8062 H       
  60 H60            5.0534    -1.5846    -2.7927 H       
  61 H61            7.5502    -1.5882    -2.4022 H       
  62 H62            6.6253    -0.8574    -1.0678 H       
  63 H63            6.9958    -3.6879     1.1742 H       
  64 H64            6.3084    -2.0574     0.9762 H       
  65 H65            4.5008    -3.6834     0.7962 H       
  66 H66            5.4018    -4.6016    -0.4390 H       
  67 H67            8.6793    -1.3341     0.2173 H       
  68 H68            8.5943    -3.2893     1.7191 H       
  69 H69            9.2849    -4.3188     0.4409 H       
  70 H70           10.6375    -1.8932     1.7085 H       
  71 H71           11.0416    -3.5967     2.0285 H       
  72 H72           11.0785    -0.9427    -0.4639 H       
  73 H73           11.8066    -1.9481    -1.7394 H       
  74 H74            9.7484    -3.3198    -1.8423 H       
  75 H75            9.3767    -1.6031    -2.1347 H       
  76 H76           13.2487    -3.3648     1.2715 H       
  77 H77            1.4404    -2.0397     2.9122 H       
  78 H78           -2.3067    -4.6997     1.0998 H       
  79 H79           -2.6103    -6.8344    -1.0079 H       
  80 H80           -1.7269    -9.0943    -1.4193 H       
  81 H81            1.5748    -7.4274    -3.5418 H       
  82 H82            2.7453    -5.7049    -3.3121 H       
  83 H83            1.8157    -5.7921    -4.8276 H       
  84 H84            2.8615    -3.2372    -3.5254 H       
  85 H85            3.5613    -4.0356    -4.9540 H       
  86 H86            1.9319    -3.3244    -5.0408 H       
  87 H87           13.5591    -2.0665    -1.4735 H       
  88 H88           14.8918    -2.5936    -0.4179 H       
  89 H89           13.7778    -3.7957    -1.1124 H       
  90 H90           12.4135    -1.1284     1.9419 H       
  91 H91           14.0951    -1.0360     1.3657 H       
  92 H92           12.7624    -0.5089     0.3101 H       
  93 H93           -2.3931     0.7004     0.9196 H       
  94 H94           -2.4108     0.7099    -0.8602 H       
  95 H95           -4.4966    -0.2790     0.0452 H       
@<TRIPOS>BOND
   1    1   31 1
   2    2    3 ar
   3    2    7 ar
   4    3    4 ar
   5    3   51 1
   6    4    5 ar
   7    4    8 1
   8    5    6 ar
   9    5   56 1
  10    6    7 ar
  11    6   57 1
  12    7   58 1
  13    8    9 1
  14    8   10 1
  15    8   28 1
  16    9   26 2
  17    9   27 am
  18   10   11 1
  19   11   12 am
  20   11   13 2
  21   12   14 1
  22   12   18 1
  23   14   15 1
  24   14   59 1
  25   14   60 1
  26   15   16 1
  27   15   61 1
  28   15   62 1
  29   16   17 1
  30   16   19 1
  31   17   18 1
  32   17   63 1
  33   17   64 1
  34   18   65 1
  35   18   66 1
  36   19   20 1
  37   19   24 1
  38   19   67 1
  39   20   21 1
  40   20   68 1
  41   20   69 1
  42   21   22 1
  43   21   70 1
  44   21   71 1
  45   22   23 1
  46   22   25 1
  47   23   24 1
  48   23   72 1
  49   23   73 1
  50   24   74 1
  51   24   75 1
  52   25   44 1
  53   25   45 1
  54   25   76 1
  55   27   48 am
  56   27   29 1
  57   28   29 ar
  58   28   30 ar
  59   29   33 ar
  60   30   31 ar
  61   30   77 1
  62   31   32 ar
  63   32   33 ar
  64   32   46 1
  65   33   78 1
  66   34   35 ar
  67   34   36 ar
  68   34   48 1
  69   35   41 1
  70   35   39 ar
  71   36   37 ar
  72   36   79 1
  73   37   38 ar
  74   37   80 1
  75   38   39 ar
  76   38   40 1
  77   39   81 1
  78   41   42 1
  79   42   43 1
  80   42   82 1
  81   42   83 1
  82   43   84 1
  83   43   85 1
  84   43   86 1
  85   44   87 1
  86   44   88 1
  87   44   89 1
  88   45   90 1
  89   45   91 1
  90   45   92 1
  91   46   47 3
  92   48   49 2
  93   48   50 2
  94   51   52 1
  95   52   53 1
  96   52   93 1
  97   52   94 1
  98   53   54 1
  99   53   55 1
 100   53   95 1

#	End of record

