#	Name: ASD03082199
#	Creating user name:	WinNT
#	Creation time:	15. 06. 2019 20:27

#	Modifying user name:	WinNT
#	Modification time:	15. 06. 2019 20:27

#	Program:	/corina/corina34_cracker 3.40 0067  02.08.2006

@<TRIPOS>MOLECULE
ASD03082199
  49   52    0    0    0
SMALL
NO_CHARGES


@<TRIPOS>ATOM
   1 N1             0.0254     1.4345    -0.1380 N.pl3   
   2 N2            -0.0159     0.0314    -0.1769 N.2     
   3 C3             1.2059    -0.3938     0.0509 C.2     
   4 N4             2.0061     0.6580     0.2294 N.2     
   5 C5             1.3091     1.7709     0.1185 C.2     
   6 N6             1.6027    -1.7316     0.0993 N.pl3   
   7 C7             2.9556    -2.0547     0.2332 C.ar    
   8 C8             3.3292    -3.2676     0.7988 C.ar    
   9 C9             4.6669    -3.5836     0.9296 C.ar    
  10 C10            5.6346    -2.6942     0.4988 C.ar    
  11 C11            5.2664    -1.4862    -0.0641 C.ar    
  12 C12            3.9300    -1.1665    -0.2040 C.ar    
  13 C13            5.0731    -4.8989     1.5430 C.3     
  14 F14            5.1828    -5.8673     0.5394 F       
  15 F15            6.3066    -4.7522     2.1864 F       
  16 F16            4.1068    -5.2981     2.4726 F       
  17 C17            1.5207     5.4898     0.6278 C.ar    
  18 C18            0.9845     4.2237     0.5114 C.ar    
  19 C19            1.8387     3.1466     0.2515 C.ar    
  20 C20            3.2073     3.4058     0.1213 C.ar    
  21 C21            3.6580     4.7033     0.2532 C.ar    
  22 N22            2.8180     5.6906     0.4979 N.ar    
  23 C23           -1.0986     2.3518    -0.3415 C.3     
  24 C24           -1.7825     2.6084     0.9766 C.2     
  25 N25           -2.8509     3.4281     1.0331 N.am    
  26 O26           -1.3715     2.0774     1.9866 O.2     
  27 C27           -3.6094     3.7646     2.2468 C.3     
  28 C28           -4.7539     4.7098     1.8244 C.3     
  29 C29           -4.9179     4.4030     0.3124 C.3     
  30 C30           -3.4486     4.1406    -0.1107 C.3     
  31 H31            0.9393    -2.4368     0.0399 H       
  32 H32            2.5741    -3.9622     1.1361 H       
  33 H33            6.6803    -2.9437     0.6027 H       
  34 H34            6.0245    -0.7937    -0.3988 H       
  35 H35            3.6429    -0.2249    -0.6482 H       
  36 H36            0.8689     6.3283     0.8239 H       
  37 H37           -0.0785     4.0666     0.6193 H       
  38 H38            3.9007     2.6025    -0.0791 H       
  39 H39            4.7127     4.9135     0.1543 H       
  40 H40           -0.7301     3.2932    -0.7490 H       
  41 H41           -1.8087     1.9072    -1.0388 H       
  42 H42           -4.0217     2.8580     2.6896 H       
  43 H43           -2.9591     4.2668     2.9630 H       
  44 H44           -5.6691     4.4738     2.3673 H       
  45 H45           -4.4707     5.7511     1.9781 H       
  46 H46           -5.5362     3.5187     0.1580 H       
  47 H47           -5.3280     5.2621    -0.2184 H       
  48 H48           -2.9313     5.0832    -0.2896 H       
  49 H49           -3.4166     3.5143    -1.0022 H       
@<TRIPOS>BOND
   1    1    2 1
   2    1    5 1
   3    1   23 1
   4    2    3 2
   5    3    4 1
   6    3    6 1
   7    4    5 2
   8    5   19 1
   9    6    7 1
  10    6   31 1
  11    7    8 ar
  12    7   12 ar
  13    8    9 ar
  14    8   32 1
  15    9   10 ar
  16    9   13 1
  17   10   11 ar
  18   10   33 1
  19   11   12 ar
  20   11   34 1
  21   12   35 1
  22   13   14 1
  23   13   15 1
  24   13   16 1
  25   17   18 ar
  26   17   22 ar
  27   17   36 1
  28   18   19 ar
  29   18   37 1
  30   19   20 ar
  31   20   21 ar
  32   20   38 1
  33   21   22 ar
  34   21   39 1
  35   23   24 1
  36   23   40 1
  37   23   41 1
  38   24   25 am
  39   24   26 2
  40   25   27 1
  41   25   30 1
  42   27   28 1
  43   27   42 1
  44   27   43 1
  45   28   29 1
  46   28   44 1
  47   28   45 1
  48   29   30 1
  49   29   46 1
  50   29   47 1
  51   30   48 1
  52   30   49 1

#	End of record

