#	Name: ASD00310271
#	Creating user name:	WinNT
#	Creation time:	15. 06. 2019 18:34

#	Modifying user name:	WinNT
#	Modification time:	15. 06. 2019 18:34

#	Program:	/corina/corina34_cracker 3.40 0067  02.08.2006

@<TRIPOS>MOLECULE
ASD00310271
  26   27    0    0    0
SMALL
NO_CHARGES


@<TRIPOS>ATOM
   1 C1            -0.0047     1.5501     0.0092 C.3     
   2 C2             1.4902     1.8554    -0.1827 C.3     
   3 C3             1.1743     2.0716    -1.6721 C.3     
   4 C4            -0.2605     2.4136    -1.2373 C.3     
   5 O5            -0.3353     0.1717    -0.1717 O.3     
   6 C6            -0.5818     2.1305     1.2745 C.ar    
   7 C7            -0.0572     1.7705     2.5021 C.ar    
   8 C8            -0.5861     2.3026     3.6627 C.ar    
   9 C9            -1.6404     3.1959     3.5961 C.ar    
  10 C10           -2.1646     3.5560     2.3680 C.ar    
  11 C11           -1.6317     3.0270     1.2073 C.ar    
  12 C12            1.0913     0.7975     2.5744 C.3     
  13 Br13          -2.3650     3.9238     5.1839 Br      
  14 H14            1.8205     2.7592     0.3293 H       
  15 H15            2.1384     0.9997     0.0065 H       
  16 H16            1.7088     2.9124    -2.1142 H       
  17 H17            1.2445     1.1627    -2.2697 H       
  18 H18           -1.0257     2.0086    -1.8995 H       
  19 H19           -0.4089     3.4701    -1.0136 H       
  20 H20           -1.2742    -0.0266    -0.0523 H       
  21 H21           -0.1767     2.0208     4.6215 H       
  22 H22           -2.9877     4.2533     2.3155 H       
  23 H23           -2.0385     3.3110     0.2480 H       
  24 H24            2.0306     1.3334     2.4387 H       
  25 H25            1.0905     0.3063     3.5475 H       
  26 H26            0.9833     0.0489     1.7895 H       
@<TRIPOS>BOND
   1    1    2 1
   2    1    4 1
   3    1    5 1
   4    1    6 1
   5    2    3 1
   6    2   14 1
   7    2   15 1
   8    3    4 1
   9    3   16 1
  10    3   17 1
  11    4   18 1
  12    4   19 1
  13    5   20 1
  14    6    7 ar
  15    6   11 ar
  16    7    8 ar
  17    7   12 1
  18    8    9 ar
  19    8   21 1
  20    9   10 ar
  21    9   13 1
  22   10   11 ar
  23   10   22 1
  24   11   23 1
  25   12   24 1
  26   12   25 1
  27   12   26 1

#	End of record

