#	Name: ASD01913223
#	Creating user name:	WinNT
#	Creation time:	15. 06. 2019 20:01

#	Modifying user name:	WinNT
#	Modification time:	15. 06. 2019 20:01

#	Program:	/corina/corina34_cracker 3.40 0067  02.08.2006

@<TRIPOS>MOLECULE
ASD01913223
  44   47    0    0    0
SMALL
NO_CHARGES


@<TRIPOS>ATOM
   1 C1             0.9370     1.4323    -3.4740 C.ar    
   2 C2             0.9460     0.0495    -3.4736 C.ar    
   3 N3             1.9290    -0.6211    -2.9089 N.ar    
   4 C4             2.9467    -0.0006    -2.3196 C.ar    
   5 C5             3.0002     1.3954    -2.2833 C.ar    
   6 C6             1.9801     2.1218    -2.8698 C.ar    
   7 C7             3.9950    -0.7681    -1.7176 C.1     
   8 C8             4.8544    -1.3974    -1.2240 C.1     
   9 C9             5.9027    -2.1650    -0.6219 C.ar    
  10 C10            6.9772    -1.5190     0.0003 C.ar    
  11 C11            7.9894    -2.2599     0.5810 C.ar    
  12 C12            7.9477    -3.6390     0.5515 C.ar    
  13 C13            6.8808    -4.2970    -0.0663 C.ar    
  14 C14            5.8532    -3.5586    -0.6487 C.ar    
  15 Cl15           7.0392     0.2154     0.0421 Cl      
  16 C16            6.8398    -5.7742    -0.0963 C.2     
  17 N17            7.9833    -6.4779    -0.2137 N.am    
  18 O18            5.7747    -6.3544    -0.0152 O.2     
  19 C19            7.9920    -7.9471    -0.1167 C.3     
  20 C20            8.4321    -8.5042    -1.4696 C.3     
  21 C21            9.6576    -7.7871    -1.9718 C.ar    
  22 C22           10.0403    -6.5481    -1.5095 C.ar    
  23 C23            9.2686    -5.8115    -0.4492 C.3     
  24 C24           10.4209    -8.4204    -2.9454 C.ar    
  25 C25           11.5511    -7.8158    -3.4542 C.ar    
  26 C26           11.9300    -6.5682    -2.9941 C.ar    
  27 C27           11.1759    -5.9385    -2.0256 C.ar    
  28 H28            0.1279     1.9715    -3.9440 H       
  29 H29            0.1354    -0.4883    -3.9428 H       
  30 H30            3.8263     1.8997    -1.8041 H       
  31 H31            1.9941     3.2016    -2.8580 H       
  32 H32            8.8168    -1.7572     1.0597 H       
  33 H33            8.7423    -4.2114     1.0070 H       
  34 H34            5.0266    -4.0629    -1.1269 H       
  35 H35            8.6923    -8.2615     0.6571 H       
  36 H36            6.9912    -8.3069     0.1224 H       
  37 H37            8.6558    -9.5658    -1.3645 H       
  38 H38            7.6232    -8.3786    -2.1893 H       
  39 H39            9.0950    -4.7855    -0.7737 H       
  40 H40            9.8413    -5.8061     0.4783 H       
  41 H41           10.1264    -9.3947    -3.3066 H       
  42 H42           12.1390    -8.3158    -4.2097 H       
  43 H43           12.8127    -6.0889    -3.3910 H       
  44 H44           11.4709    -4.9636    -1.6665 H       
@<TRIPOS>BOND
   1    1    2 ar
   2    1    6 ar
   3    1   28 1
   4    2    3 ar
   5    2   29 1
   6    3    4 ar
   7    4    5 ar
   8    4    7 1
   9    5    6 ar
  10    5   30 1
  11    6   31 1
  12    7    8 3
  13    8    9 1
  14    9   10 ar
  15    9   14 ar
  16   10   11 ar
  17   10   15 1
  18   11   12 ar
  19   11   32 1
  20   12   13 ar
  21   12   33 1
  22   13   14 ar
  23   13   16 1
  24   14   34 1
  25   16   17 am
  26   16   18 2
  27   17   19 1
  28   17   23 1
  29   19   20 1
  30   19   35 1
  31   19   36 1
  32   20   21 1
  33   20   37 1
  34   20   38 1
  35   21   22 ar
  36   21   24 ar
  37   22   23 1
  38   22   27 ar
  39   23   39 1
  40   23   40 1
  41   24   25 ar
  42   24   41 1
  43   25   26 ar
  44   25   42 1
  45   26   27 ar
  46   26   43 1
  47   27   44 1

#	End of record

