#	Name: ASD01190038
#	Creating user name:	WinNT
#	Creation time:	15. 06. 2019 19:07

#	Modifying user name:	WinNT
#	Modification time:	15. 06. 2019 19:07

#	Program:	/corina/corina34_cracker 3.40 0067  02.08.2006

@<TRIPOS>MOLECULE
ASD01190038
  63   68    0    0    0
SMALL
NO_CHARGES


@<TRIPOS>ATOM
   1 C1            -0.0187     1.5258     0.0104 C.3     
   2 C2            -0.4793     1.9107     1.4177 C.3     
   3 N3             0.8026    -4.0253    -0.3412 N.pl3   
   4 N4             2.2012    -3.9594    -0.4289 N.2     
   5 N5             2.5756    -2.7295    -0.3875 N.2     
   6 C6             1.5059    -1.9167    -0.2743 C.ar    
   7 C7             0.3566    -2.7264    -0.2427 C.ar    
   8 C8             1.3658    -0.5256    -0.1899 C.ar    
   9 C9             0.1238     0.0282    -0.0794 C.ar    
  10 C10           -1.0105    -0.7723    -0.0483 C.ar    
  11 C11           -0.8997    -2.1427    -0.1292 C.ar    
  12 C12            0.0144    -5.1843    -0.3570 C.ar    
  13 C13            0.3906    -6.2702    -1.1363 C.ar    
  14 C14           -0.3873    -7.4112    -1.1505 C.ar    
  15 C15           -1.5418    -7.4728    -0.3882 C.ar    
  16 C16           -1.9187    -6.3908     0.3897 C.ar    
  17 C17           -1.1404    -5.2501     0.4110 C.ar    
  18 F18           -2.3018    -8.5897    -0.4038 F       
  19 F19            0.4655     1.4753     2.3531 F       
  20 F20           -0.6116     3.3010     1.5011 F       
  21 F21           -1.7130     1.3080     1.6858 F       
  22 N22           -2.8398     2.9220    -1.8998 N.pl3   
  23 C23           -2.1685     2.6670    -0.7351 C.2     
  24 C24           -1.0364     1.9949    -0.9971 C.2     
  25 C25           -0.9780     1.8039    -2.4483 C.ar    
  26 C26           -0.0663     1.1918    -3.3108 C.ar    
  27 C27           -0.3064     1.1820    -4.6558 C.ar    
  28 C28           -1.4499     1.7760    -5.1723 C.ar    
  29 C29           -2.3623     2.3858    -4.3397 C.ar    
  30 C30           -2.1382     2.4072    -2.9668 C.ar    
  31 C31           -4.1177     3.6317    -1.9965 C.3     
  32 O32           -7.5200     2.3737    -1.5172 O.3     
  33 C33           -6.7507     1.7851    -0.4550 C.3     
  34 O34           -5.3573     1.9225    -0.7631 O.3     
  35 C35           -5.2634     2.6180    -2.0227 C.3     
  36 C36           -6.6303     3.3392    -2.1276 C.3     
  37 C37           -7.0593     2.5016     0.8611 C.3     
  38 C38           -7.1046     0.3023    -0.3247 C.3     
  39 O39            1.2415     2.1414    -0.2634 O.3     
  40 H40            2.2401     0.1081    -0.2127 H       
  41 H41           -1.9860    -0.3173     0.0403 H       
  42 H42           -1.7850    -2.7609    -0.1049 H       
  43 H43            1.2907    -6.2225    -1.7311 H       
  44 H44           -0.0953    -8.2559    -1.7568 H       
  45 H45           -2.8194    -6.4407     0.9835 H       
  46 H46           -1.4320    -4.4083     1.0215 H       
  47 H47           -2.5001     2.9629     0.2492 H       
  48 H48            0.8256     0.7280    -2.9162 H       
  49 H49            0.3993     0.7088    -5.3224 H       
  50 H50           -1.6258     1.7602    -6.2378 H       
  51 H51           -3.2487     2.8454    -4.7512 H       
  52 H52           -4.2342     4.2895    -1.1351 H       
  53 H53           -4.1359     4.2243    -2.9112 H       
  54 H54           -5.1331     1.9126    -2.8434 H       
  55 H55           -6.9001     3.5147    -3.1690 H       
  56 H56           -6.6230     4.2730    -1.5653 H       
  57 H57           -8.1161     2.3832     1.1001 H       
  58 H58           -6.4556     2.0705     1.6597 H       
  59 H59           -6.8259     3.5616     0.7611 H       
  60 H60           -6.9035    -0.2036    -1.2690 H       
  61 H61           -6.5013    -0.1472     0.4640 H       
  62 H62           -8.1611     0.2014    -0.0762 H       
  63 H63            1.5950     1.9406    -1.1407 H       
@<TRIPOS>BOND
   1    1    2 1
   2    1    9 1
   3    1   24 1
   4    1   39 1
   5    2   19 1
   6    2   20 1
   7    2   21 1
   8    3    4 1
   9    3    7 1
  10    3   12 1
  11    4    5 2
  12    5    6 1
  13    6    7 ar
  14    6    8 ar
  15    7   11 ar
  16    8    9 ar
  17    8   40 1
  18    9   10 ar
  19   10   11 ar
  20   10   41 1
  21   11   42 1
  22   12   13 ar
  23   12   17 ar
  24   13   14 ar
  25   13   43 1
  26   14   15 ar
  27   14   44 1
  28   15   16 ar
  29   15   18 1
  30   16   17 ar
  31   16   45 1
  32   17   46 1
  33   22   23 1
  34   22   30 1
  35   22   31 1
  36   23   24 2
  37   23   47 1
  38   24   25 1
  39   25   26 ar
  40   25   30 ar
  41   26   27 ar
  42   26   48 1
  43   27   28 ar
  44   27   49 1
  45   28   29 ar
  46   28   50 1
  47   29   30 ar
  48   29   51 1
  49   31   35 1
  50   31   52 1
  51   31   53 1
  52   32   33 1
  53   32   36 1
  54   33   34 1
  55   33   37 1
  56   33   38 1
  57   34   35 1
  58   35   36 1
  59   35   54 1
  60   36   55 1
  61   36   56 1
  62   37   57 1
  63   37   58 1
  64   37   59 1
  65   38   60 1
  66   38   61 1
  67   38   62 1
  68   39   63 1

#	End of record

