#	Name: ASD01900431
#	Creating user name:	WinNT
#	Creation time:	15. 06. 2019 19:51

#	Modifying user name:	WinNT
#	Modification time:	15. 06. 2019 19:51

#	Program:	/corina/corina34_cracker 3.40 0067  02.08.2006

@<TRIPOS>MOLECULE
ASD01900431
  38   41    0    0    0
SMALL
NO_CHARGES


@<TRIPOS>ATOM
   1 C1            -0.0159     1.2245    -0.0292 C.2     
   2 O2             0.6397     1.0148     0.9734 O.2     
   3 C3             0.4729     0.7561    -1.3431 C.ar    
   4 C4            -0.3169     0.9174    -2.4834 C.ar    
   5 C5             0.1453     0.4780    -3.7064 C.ar    
   6 C6             1.3886    -0.1216    -3.8050 C.ar    
   7 C7             2.1764    -0.2846    -2.6790 C.ar    
   8 C8             1.7290     0.1554    -1.4507 C.ar    
   9 C9            -1.2999     1.9398     0.0666 C.ar    
  10 C10           -2.5064     1.2331    -0.0252 C.ar    
  11 C11           -3.7031     1.9087     0.0653 C.ar    
  12 C12           -3.7097     3.2895     0.2473 C.ar    
  13 C13           -2.5086     3.9896     0.3382 C.ar    
  14 C14           -1.3182     3.3262     0.2553 C.ar    
  15 Cl15          -2.4926    -0.4879    -0.2526 Cl      
  16 N16           -4.9175     3.9708     0.3381 N.pl3   
  17 C17           -7.4193     3.8573     0.8324 C.ar    
  18 C18           -8.2377     2.8372     1.3537 C.ar    
  19 C19           -9.6029     3.0766     1.5072 C.ar    
  20 C20          -10.0949     4.3131     1.1382 C.ar    
  21 C21           -9.2292     5.2732     0.6307 C.ar    
  22 N22           -7.9454     5.0316     0.4924 N.ar    
  23 N23           -6.1128     2.0868     1.2540 N.2     
  24 N24           -7.4269     1.7624     1.6065 N.pl3   
  25 C25           -6.0626     3.3068     0.7888 C.2     
  26 H26           -1.2876     1.3849    -2.4078 H       
  27 H27           -0.4646     0.6018    -4.5891 H       
  28 H28            1.7456    -0.4642    -4.7650 H       
  29 H29            3.1458    -0.7533    -2.7630 H       
  30 H30            2.3468     0.0319    -0.5736 H       
  31 H31           -4.6355     1.3684    -0.0052 H       
  32 H32           -2.5193     5.0603     0.4791 H       
  33 H33           -0.3897     3.8727     0.3308 H       
  34 H34           -4.9662     4.9069     0.0887 H       
  35 H35          -10.2580     2.3151     1.9037 H       
  36 H36          -11.1472     4.5322     1.2434 H       
  37 H37           -9.6196     6.2384     0.3435 H       
  38 H38           -7.7177     0.9121     1.9717 H       
@<TRIPOS>BOND
   1    1    2 2
   2    1    3 1
   3    1    9 1
   4    3    4 ar
   5    3    8 ar
   6    4    5 ar
   7    4   26 1
   8    5    6 ar
   9    5   27 1
  10    6    7 ar
  11    6   28 1
  12    7    8 ar
  13    7   29 1
  14    8   30 1
  15    9   10 ar
  16    9   14 ar
  17   10   11 ar
  18   10   15 1
  19   11   12 ar
  20   11   31 1
  21   12   13 ar
  22   12   16 1
  23   13   14 ar
  24   13   32 1
  25   14   33 1
  26   16   25 1
  27   16   34 1
  28   17   18 ar
  29   17   22 ar
  30   17   25 1
  31   18   19 ar
  32   18   24 1
  33   19   20 ar
  34   19   35 1
  35   20   21 ar
  36   20   36 1
  37   21   22 ar
  38   21   37 1
  39   23   24 1
  40   23   25 2
  41   24   38 1

#	End of record

