#	Name: ASD00071090
#	Creating user name:	WinNT
#	Creation time:	15. 06. 2019 18:30

#	Modifying user name:	WinNT
#	Modification time:	15. 06. 2019 18:30

#	Program:	/corina/corina34_cracker 3.40 0067  02.08.2006

@<TRIPOS>MOLECULE
ASD00071090
  49   52    0    0    0
SMALL
NO_CHARGES


@<TRIPOS>ATOM
   1 N1            -0.0157     1.3065     0.0092 N.2     
   2 C2             0.0021    -0.0041     0.0020 C.2     
   3 N3             1.1984    -0.6822     0.0317 N.pl3   
   4 C4             2.3732    -0.0684    -0.6058 C.3     
   5 C5             2.3601     1.4066    -0.2838 C.ar    
   6 C6             3.5306     2.1320    -0.2741 C.ar    
   7 C7             3.5023     3.4864     0.0113 C.ar    
   8 C8             2.3010     4.1157     0.2867 C.ar    
   9 C9             1.1230     3.3980     0.2846 C.ar    
  10 C10            1.1441     2.0306     0.0020 C.ar    
  11 N11           -1.1783    -0.7029    -0.0348 N.pl3   
  12 C12           -2.4545     0.0160    -0.0660 C.3     
  13 C13           -4.1486    -1.4429     1.0709 C.ar    
  14 C14           -3.5887    -0.9755    -0.1033 C.ar    
  15 C15           -4.0842    -1.4299    -1.3156 C.ar    
  16 C16           -5.1290    -2.3417    -1.3016 C.ar    
  17 C17           -5.6379    -2.7640    -0.0883 C.ar    
  18 N18           -5.1412    -2.3105     1.0462 N.ar    
  19 C19            1.3004    -1.9893     0.6854 C.3     
  20 C20            1.0037    -3.0761    -0.3155 C.ar    
  21 C21            1.9845    -3.4848    -1.2078 C.ar    
  22 C22            1.7083    -4.4854    -2.1279 C.ar    
  23 C23            0.4578    -5.0725    -2.1538 C.ar    
  24 C24           -0.5178    -4.6632    -1.2640 C.ar    
  25 C25           -0.2430    -3.6701    -0.3416 C.ar    
  26 O26            3.2135    -2.9055    -1.1807 O.3     
  27 C27            4.1738    -3.3764    -2.1285 C.3     
  28 H28            3.2838    -0.5228    -0.2154 H       
  29 H29            2.3231    -0.2105    -1.6853 H       
  30 H30            4.4702     1.6446    -0.4885 H       
  31 H31            4.4211     4.0539     0.0193 H       
  32 H32            2.2857     5.1734     0.5045 H       
  33 H33            0.1873     3.8920     0.5009 H       
  34 H34           -1.1678    -1.6728    -0.0402 H       
  35 H35           -2.5437     0.6368     0.8255 H       
  36 H36           -2.4943     0.6472    -0.9537 H       
  37 H37           -3.7653    -1.0973     2.0196 H       
  38 H38           -3.6667    -1.0819    -2.2489 H       
  39 H39           -5.5400    -2.7167    -2.2272 H       
  40 H40           -6.4515    -3.4739    -0.0688 H       
  41 H41            2.3088    -2.1217     1.0774 H       
  42 H42            0.5825    -2.0432     1.5038 H       
  43 H43            2.4699    -4.8051    -2.8238 H       
  44 H44            0.2422    -5.8516    -2.8700 H       
  45 H45           -1.4949    -5.1228    -1.2863 H       
  46 H46           -1.0053    -3.3554     0.3556 H       
  47 H47            3.7964    -3.2156    -3.1384 H       
  48 H48            5.1091    -2.8319    -1.9991 H       
  49 H49            4.3481    -4.4407    -1.9709 H       
@<TRIPOS>BOND
   1    1    2 2
   2    1   10 1
   3    2    3 1
   4    2   11 1
   5    3    4 1
   6    3   19 1
   7    4    5 1
   8    4   28 1
   9    4   29 1
  10    5    6 ar
  11    5   10 ar
  12    6    7 ar
  13    6   30 1
  14    7    8 ar
  15    7   31 1
  16    8    9 ar
  17    8   32 1
  18    9   10 ar
  19    9   33 1
  20   11   12 1
  21   11   34 1
  22   12   14 1
  23   12   35 1
  24   12   36 1
  25   13   14 ar
  26   13   18 ar
  27   13   37 1
  28   14   15 ar
  29   15   16 ar
  30   15   38 1
  31   16   17 ar
  32   16   39 1
  33   17   18 ar
  34   17   40 1
  35   19   20 1
  36   19   41 1
  37   19   42 1
  38   20   21 ar
  39   20   25 ar
  40   21   22 ar
  41   21   26 1
  42   22   23 ar
  43   22   43 1
  44   23   24 ar
  45   23   44 1
  46   24   25 ar
  47   24   45 1
  48   25   46 1
  49   26   27 1
  50   27   47 1
  51   27   48 1
  52   27   49 1

#	End of record

