#	Name: ASD01410925
#	Creating user name:	WinNT
#	Creation time:	15. 06. 2019 19:19

#	Modifying user name:	WinNT
#	Modification time:	15. 06. 2019 19:19

#	Program:	/corina/corina34_cracker 3.40 0067  02.08.2006

@<TRIPOS>MOLECULE
ASD01410925
  83   87    0    0    0
SMALL
NO_CHARGES


@<TRIPOS>ATOM
   1 C1             0.2801     1.1950    -0.2448 C.ar    
   2 C2            -2.1150     1.3921    -0.2539 C.ar    
   3 C3            -2.2333     0.0245    -0.0490 C.ar    
   4 C4            -1.0794    -0.7682     0.0473 C.ar    
   5 C5             0.1795    -0.1699    -0.0463 C.ar    
   6 O6             1.5050     1.7772    -0.3417 O.3     
   7 C7             1.8843     2.6305     0.6425 C.ar    
   8 N8            -3.4945    -0.5615     0.0492 N.am    
   9 C9            -4.0269    -0.8156     1.2610 C.2     
  10 C10           -5.3368    -1.5528     1.3689 C.3     
  11 O11           -3.4518    -0.4510     2.2646 O.2     
  12 C12           -5.6140    -1.8882     2.8357 C.3     
  13 C13           -7.7938    -1.4207     0.9348 C.3     
  14 C14           -8.0710    -1.7561     2.4017 C.3     
  15 C15           -6.9440    -2.6366     2.9453 C.3     
  16 C16           -9.4009    -2.5045     2.5112 C.3     
  17 N17            1.1152     2.7855     1.7077 N.ar    
  18 C18           -4.2410    -0.9010    -1.1647 C.3     
  19 C19           -4.5531     0.3772    -1.9457 C.3     
  20 C20            3.0792     3.3288     0.5247 C.ar    
  21 C21            3.4549     4.1960     1.5361 C.ar    
  22 C22            2.6178     4.3343     2.6344 C.ar    
  23 C23            1.4466     3.6043     2.6875 C.ar    
  24 C24           -6.4638    -0.6723     0.8253 C.3     
  25 C25            2.9858     5.2665     3.7599 C.3     
  26 C26           -0.8667     1.9728    -0.3512 C.ar    
  27 C27            2.4251     6.6371     3.4807 C.ar    
  28 C28            1.6116     7.2459     4.4171 C.ar    
  29 C29           -3.4009    -1.8380    -2.0348 C.3     
  30 C30            1.1007     8.5072     4.1505 C.ar    
  31 C31            1.4290     9.1110     2.9465 C.ar    
  32 C32            2.2488     8.4406     2.0583 C.ar    
  33 N33            2.7209     7.2439     2.3477 N.ar    
  34 C34           -5.3328     0.0226    -3.2135 C.3     
  35 C35           -4.4927    -0.9144    -4.0836 C.3     
  36 C36           -4.1806    -2.1925    -3.3026 C.3     
  37 O37           -5.2209    -1.2456    -5.2677 O.3     
  38 C38           -4.3949    -1.5064    -6.4042 C.3     
  39 C39           -1.1947    -2.2213     0.2653 C.2     
  40 O40           -2.2867    -2.7246     0.4404 O.2     
  41 O41           -0.0891    -2.9917     0.2704 O.3     
  42 C42            3.9551     3.1444    -0.6876 C.3     
  43 F43            5.0918     3.9514    -0.5688 F       
  44 F44            4.3430     1.8037    -0.7831 F       
  45 F45            3.2438     3.5070    -1.8364 F       
  46 H46           -3.0015     2.0045    -0.3284 H       
  47 H47            1.0723    -0.7721     0.0357 H       
  48 H48           -5.2840    -2.4743     0.7892 H       
  49 H49           -4.8111    -2.5155     3.2230 H       
  50 H50           -5.6669    -0.9666     3.4154 H       
  51 H51           -7.7409    -2.3423     0.3551 H       
  52 H52           -8.5967    -0.7934     0.5476 H       
  53 H53           -8.1238    -0.8345     2.9814 H       
  54 H54           -6.8911    -3.5582     2.3656 H       
  55 H55           -7.1414    -2.8755     3.9903 H       
  56 H56           -9.3480    -3.4261     1.9315 H       
  57 H57           -9.5984    -2.7435     3.5562 H       
  58 H58          -10.2038    -1.8772     2.1239 H       
  59 H59           -5.1727    -1.3965    -0.8916 H       
  60 H60           -5.1516     1.0447    -1.3258 H       
  61 H61           -3.6215     0.8727    -2.2187 H       
  62 H62            4.3785     4.7520     1.4721 H       
  63 H63            0.7916     3.7086     3.5398 H       
  64 H64           -6.5167     0.2493     1.4050 H       
  65 H65           -6.2664    -0.4333    -0.2197 H       
  66 H66            2.5724     4.8883     4.6948 H       
  67 H67            4.0711     5.3275     3.8409 H       
  68 H68           -0.7807     3.0375    -0.5106 H       
  69 H69            1.3763     6.7456     5.3449 H       
  70 H70           -2.4693    -1.3424    -2.3079 H       
  71 H71           -3.1786    -2.7485    -1.4784 H       
  72 H72            0.4620     9.0071     4.8636 H       
  73 H73            1.0488    10.0927     2.7056 H       
  74 H74            2.5090     8.9040     1.1181 H       
  75 H75           -6.2644    -0.4730    -2.9404 H       
  76 H76           -5.5552     0.9332    -3.7699 H       
  77 H77           -3.5611    -0.4189    -4.3566 H       
  78 H78           -3.5821    -2.8601    -3.9225 H       
  79 H79           -5.1122    -2.6881    -3.0295 H       
  80 H80           -5.0226    -1.7499    -7.2614 H       
  81 H81           -3.7982    -0.6227    -6.6301 H       
  82 H82           -3.7338    -2.3456    -6.1879 H       
  83 H83           -0.2149    -3.9392     0.4173 H       
@<TRIPOS>BOND
   1    1   26 ar
   2    1    6 1
   3    1    5 ar
   4    2    3 ar
   5    2   26 ar
   6    2   46 1
   7    3    4 ar
   8    3    8 1
   9    4    5 ar
  10    4   39 1
  11    5   47 1
  12    6    7 1
  13    7   20 ar
  14    7   17 ar
  15    8    9 am
  16    8   18 1
  17    9   11 2
  18    9   10 1
  19   10   12 1
  20   10   24 1
  21   10   48 1
  22   12   15 1
  23   12   49 1
  24   12   50 1
  25   13   14 1
  26   13   24 1
  27   13   51 1
  28   13   52 1
  29   14   15 1
  30   14   16 1
  31   14   53 1
  32   15   54 1
  33   15   55 1
  34   16   56 1
  35   16   57 1
  36   16   58 1
  37   17   23 ar
  38   18   19 1
  39   18   29 1
  40   18   59 1
  41   19   34 1
  42   19   60 1
  43   19   61 1
  44   20   21 ar
  45   20   42 1
  46   21   22 ar
  47   21   62 1
  48   22   23 ar
  49   22   25 1
  50   23   63 1
  51   24   64 1
  52   24   65 1
  53   25   27 1
  54   25   66 1
  55   25   67 1
  56   26   68 1
  57   27   28 ar
  58   27   33 ar
  59   28   30 ar
  60   28   69 1
  61   29   36 1
  62   29   70 1
  63   29   71 1
  64   30   31 ar
  65   30   72 1
  66   31   32 ar
  67   31   73 1
  68   32   33 ar
  69   32   74 1
  70   34   35 1
  71   34   75 1
  72   34   76 1
  73   35   36 1
  74   35   37 1
  75   35   77 1
  76   36   78 1
  77   36   79 1
  78   37   38 1
  79   38   80 1
  80   38   81 1
  81   38   82 1
  82   39   40 2
  83   39   41 1
  84   41   83 1
  85   42   43 1
  86   42   44 1
  87   42   45 1

#	End of record

