#	Name: ASD01884732
#	Creating user name:	WinNT
#	Creation time:	15. 06. 2019 19:48

#	Modifying user name:	WinNT
#	Modification time:	15. 06. 2019 19:48

#	Program:	/corina/corina34_cracker 3.40 0067  02.08.2006

@<TRIPOS>MOLECULE
ASD01884732
  41   43    0    0    0
SMALL
NO_CHARGES


@<TRIPOS>ATOM
   1 C1            -0.0856     1.3860     0.4199 C.2     
   2 C2            -0.0682    -0.0059     0.4212 C.2     
   3 C3            -1.2141    -0.6982     0.0104 C.2     
   4 C4            -2.3221    -0.0094    -0.3824 C.2     
   5 N5            -2.3403     1.3467    -0.3846 N.am    
   6 C6            -1.2660     2.0571     0.0075 C.2     
   7 O7            -1.3039     3.2757    -0.0012 O.2     
   8 C8            -3.5511     2.0501    -0.8151 C.3     
   9 C9             1.0668     2.1286     0.8337 C.1     
  10 N10            1.9810     2.7176     1.1620 N.1     
  11 C11           -4.4581     2.2906     0.3933 C.3     
  12 C12           -5.7226     3.0253    -0.0563 C.3     
  13 C13           -6.6845     3.1556     1.1264 C.3     
  14 C14           -5.3490     4.4188    -0.5657 C.3     
  15 N15           -1.2211    -2.1023     0.0029 N.pl3   
  16 N16           -2.1520    -2.9129     0.6609 N.2     
  17 C17           -1.8772    -4.1698     0.4528 C.2     
  18 C18           -0.6915    -4.2330    -0.3954 C.ar    
  19 C19           -0.3194    -2.8997    -0.6559 C.ar    
  20 C20            0.0589    -5.2804    -0.9416 C.ar    
  21 C21            1.1465    -4.9987    -1.7164 C.ar    
  22 C22            1.5151    -3.6826    -1.9677 C.ar    
  23 C23            0.7946    -2.6432    -1.4509 C.ar    
  24 H24            0.8149    -0.5433     0.7336 H       
  25 H25           -3.2006    -0.5526    -0.6978 H       
  26 H26           -3.2768     3.0068    -1.2597 H       
  27 H27           -4.0801     1.4454    -1.5518 H       
  28 H28           -4.7323     1.3340     0.8379 H       
  29 H29           -3.9291     2.8953     1.1300 H       
  30 H30           -6.2044     2.4631    -0.8562 H       
  31 H31           -6.2027     3.7177     1.9263 H       
  32 H32           -7.5854     3.6789     0.8061 H       
  33 H33           -6.9507     2.1628     1.4893 H       
  34 H34           -4.8672     4.9810     0.2343 H       
  35 H35           -4.6637     4.3260    -1.4082 H       
  36 H36           -6.2499     4.9421    -0.8860 H       
  37 H37           -2.4285    -5.0140     0.8395 H       
  38 H38           -0.2208    -6.3059    -0.7507 H       
  39 H39            1.7265    -5.8064    -2.1381 H       
  40 H40            2.3788    -3.4788    -2.5832 H       
  41 H41            1.0918    -1.6250    -1.6539 H       
@<TRIPOS>BOND
   1    1    2 2
   2    1    9 1
   3    1    6 1
   4    2    3 1
   5    2   24 1
   6    3    4 2
   7    3   15 1
   8    4    5 1
   9    4   25 1
  10    5    8 1
  11    5    6 am
  12    6    7 2
  13    8   11 1
  14    8   26 1
  15    8   27 1
  16    9   10 3
  17   11   12 1
  18   11   28 1
  19   11   29 1
  20   12   13 1
  21   12   14 1
  22   12   30 1
  23   13   31 1
  24   13   32 1
  25   13   33 1
  26   14   34 1
  27   14   35 1
  28   14   36 1
  29   15   16 1
  30   15   19 1
  31   16   17 2
  32   17   18 1
  33   17   37 1
  34   18   19 ar
  35   18   20 ar
  36   19   23 ar
  37   20   21 ar
  38   20   38 1
  39   21   22 ar
  40   21   39 1
  41   22   23 ar
  42   22   40 1
  43   23   41 1

#	End of record

