#	Name: ASD05720273
#	Creating user name:	WinNT
#	Creation time:	15. 06. 2019 21:02

#	Modifying user name:	WinNT
#	Modification time:	15. 06. 2019 21:02

#	Program:	/corina/corina34_cracker 3.40 0067  02.08.2006

@<TRIPOS>MOLECULE
ASD05720273
  66   70    0    0    0
SMALL
NO_CHARGES


@<TRIPOS>ATOM
   1 C1             0.5119     1.0237     1.1164 C.2     
   2 N2             0.4122    -0.2391     0.6808 N.am    
   3 C3             1.6580    -0.6134    -0.0049 C.3     
   4 C4             2.5297     0.6535     0.0955 C.3     
   5 N5             1.6824     1.6071     0.8270 N.am    
   6 O6            -0.3811     1.5906     1.7157 O.2     
   7 N7             1.3790     5.4919     2.4294 N.3     
   8 C8             1.4375     5.3860     0.9660 C.3     
   9 C9             1.0758     3.9609     0.5415 C.3     
  10 C10            2.0587     2.9775     1.1828 C.3     
  11 C11            2.0133     3.1420     2.7044 C.3     
  12 C12            2.3479     4.5908     3.0662 C.3     
  13 C13            1.3817    -0.9606    -1.4691 C.3     
  14 C14            0.5223    -2.2245    -1.5401 C.3     
  15 C15            0.6397     0.1988    -2.1369 C.3     
  16 C16           -1.6778    -3.1433     0.6618 C.2     
  17 N17           -0.6243    -2.3357     0.5053 N.2     
  18 C18           -0.6921    -1.0636     0.8499 C.2     
  19 C19           -1.8851    -0.5415     1.3900 C.2     
  20 C20           -2.9530    -1.3558     1.5497 C.2     
  21 N21           -2.8523    -2.6692     1.1834 N.pl3   
  22 N22           -3.7636    -3.7303     1.2267 N.2     
  23 C23           -3.1914    -4.8116     0.7574 C.2     
  24 C24           -1.8788    -4.5014     0.3812 C.2     
  25 C25           -0.8882    -5.4341    -0.2016 C.ar    
  26 C26           -0.6489    -6.6680     0.4062 C.ar    
  27 C27            0.2725    -7.5353    -0.1367 C.ar    
  28 C28            0.9670    -7.1813    -1.2934 C.ar    
  29 C29            0.7284    -5.9487    -1.9011 C.ar    
  30 C30           -0.1968    -5.0827    -1.3624 C.ar    
  31 N31            3.4781    -9.0331    -3.1489 N.pl3   
  32 N32            2.6749    -7.8969    -2.9593 N.2     
  33 C33            1.9599    -8.1156    -1.8770 C.2     
  34 N34            2.2776    -9.3227    -1.3892 N.2     
  35 C35            3.1866    -9.8797    -2.1451 C.2     
  36 H36            2.1383    -1.4495     0.5036 H       
  37 H37            3.4427     0.4464     0.6537 H       
  38 H38            2.7656     1.0352    -0.8979 H       
  39 H39            1.5205     6.4450     2.7290 H       
  40 H40            0.7308     6.0875     0.5225 H       
  41 H41            2.4455     5.6218     0.6248 H       
  42 H42            0.0627     3.7293     0.8703 H       
  43 H43            1.1345     3.8785    -0.5438 H       
  44 H44            3.0668     3.1834     0.8231 H       
  45 H45            1.0150     2.8975     3.0673 H       
  46 H46            2.7420     2.4744     3.1645 H       
  47 H47            3.3517     4.8303     2.7153 H       
  48 H48            2.3025     4.7147     4.1482 H       
  49 H49            2.3257    -1.1336    -1.9859 H       
  50 H50           -0.4948    -1.9904    -1.2257 H       
  51 H51            0.5093    -2.5979    -2.5641 H       
  52 H52            0.9403    -2.9855    -0.8812 H       
  53 H53           -0.3043     0.3718    -1.6201 H       
  54 H54            1.2519     1.0992    -2.0863 H       
  55 H55            0.4428    -0.0485    -3.1800 H       
  56 H56           -1.9455     0.4988     1.6739 H       
  57 H57           -3.8748    -0.9730     1.9622 H       
  58 H58           -3.6570    -5.7823     0.6714 H       
  59 H59           -1.1861    -6.9420     1.3022 H       
  60 H60            0.4577    -8.4899     0.3333 H       
  61 H61            1.2666    -5.6751    -2.7966 H       
  62 H62           -0.3844    -4.1301    -1.8354 H       
  63 H63            4.1151    -9.1803    -3.8655 H       
  64 H64            3.6281   -10.8531    -1.9902 H       
  65 Cl65           9.1151    11.4450     9.1482 Cl      
  66 H66            9.1151    12.8150     9.1482 H       
@<TRIPOS>BOND
   1    1    2 am
   2    1    5 am
   3    1    6 2
   4    2    3 1
   5    2   18 1
   6    3    4 1
   7    3   13 1
   8    3   36 1
   9    4    5 1
  10    4   37 1
  11    4   38 1
  12    5   10 1
  13    7    8 1
  14    7   12 1
  15    7   39 1
  16    8    9 1
  17    8   40 1
  18    8   41 1
  19    9   10 1
  20    9   42 1
  21    9   43 1
  22   10   11 1
  23   10   44 1
  24   11   12 1
  25   11   45 1
  26   11   46 1
  27   12   47 1
  28   12   48 1
  29   13   14 1
  30   13   15 1
  31   13   49 1
  32   14   50 1
  33   14   51 1
  34   14   52 1
  35   15   53 1
  36   15   54 1
  37   15   55 1
  38   16   17 1
  39   16   21 1
  40   16   24 2
  41   17   18 2
  42   18   19 1
  43   19   20 2
  44   19   56 1
  45   20   21 1
  46   20   57 1
  47   21   22 1
  48   22   23 2
  49   23   24 1
  50   23   58 1
  51   24   25 1
  52   25   26 ar
  53   25   30 ar
  54   26   27 ar
  55   26   59 1
  56   27   28 ar
  57   27   60 1
  58   28   29 ar
  59   28   33 1
  60   29   30 ar
  61   29   61 1
  62   30   62 1
  63   31   32 1
  64   31   35 1
  65   31   63 1
  66   32   33 2
  67   33   34 1
  68   34   35 2
  69   35   64 1
  70   65   66 1

#	End of record

