#	Name: ASD06620010
#	Creating user name:	WinNT
#	Creation time:	15. 06. 2019 21:07

#	Modifying user name:	WinNT
#	Modification time:	15. 06. 2019 21:07

#	Program:	/corina/corina34_cracker 3.40 0067  02.08.2006

@<TRIPOS>MOLECULE
ASD06620010
  62   63    0    0    0
SMALL
NO_CHARGES


@<TRIPOS>ATOM
   1 C1            -0.7263     4.1281    -0.8505 C.3     
   2 O2            -0.9417     2.7849    -1.2879 O.3     
   3 C3             2.6620     5.1179    -1.6831 C.2     
   4 C4             3.7533     5.6123    -2.4244 C.2     
   5 C5             4.9888     5.6419    -1.8529 C.2     
   6 C6             5.1574     5.1803    -0.5357 C.2     
   7 C7             4.1019     4.7099     0.1606 C.2     
   8 N8             2.8583     4.6749    -0.4007 N.pl3   
   9 N9             1.3778     4.9686    -1.9769 N.2     
  10 C10            0.7442     4.4499    -0.9219 C.2     
  11 C11            1.6418     4.2578     0.0690 C.2     
  12 C12            1.3578     3.6883     1.4351 C.3     
  13 C13            0.9991     4.8234     2.3963 C.3     
  14 C14            0.7109     4.2452     3.7832 C.3     
  15 C15            0.3522     5.3803     4.7444 C.3     
  16 O16            0.0829     4.8403     6.0398 O.3     
  17 Si17          -0.4753     5.9352     7.1120 Si      
  18 C18           -1.8908     6.8803     6.3546 C.3     
  19 C19           -3.1064     5.9604     6.2241 C.3     
  20 C20           -2.2455     8.0705     7.2482 C.3     
  21 C21           -1.0647     5.0576     8.6460 C.3     
  22 C22           -2.0027     5.9769     9.4309 C.3     
  23 C23           -1.8135     3.7838     8.2489 C.3     
  24 C24            0.8922     7.1185     7.5602 C.3     
  25 C25            2.1628     6.3302     7.8845 C.3     
  26 C26            1.1610     8.0570     6.3822 C.3     
  27 Cl27           6.3491     6.2460    -2.7464 Cl      
  28 H28           -1.2796     4.8127    -1.4934 H       
  29 H29           -1.0722     4.2354     0.1775 H       
  30 H30           -1.8682     2.5087    -1.2684 H       
  31 H31            3.6114     5.9638    -3.4357 H       
  32 H32            6.1359     5.2023    -0.0794 H       
  33 H33            4.2424     4.3573     1.1717 H       
  34 H34            0.5240     2.9892     1.3712 H       
  35 H35            2.2418     3.1669     1.8023 H       
  36 H36            1.8330     5.5225     2.4602 H       
  37 H37            0.1152     5.3448     2.0291 H       
  38 H38           -0.1230     3.5461     3.7193 H       
  39 H39            1.5948     3.7238     4.1504 H       
  40 H40            1.1860     6.0794     4.8083 H       
  41 H41           -0.5318     5.9017     4.3772 H       
  42 H42           -1.6004     7.2407     5.3678 H       
  43 H43           -3.5171     5.7585     7.2134 H       
  44 H44           -3.8641     6.4447     5.6081 H       
  45 H45           -2.8040     5.0227     5.7580 H       
  46 H46           -2.6345     7.7075     8.1995 H       
  47 H47           -1.3529     8.6703     7.4258 H       
  48 H48           -3.0020     8.6818     6.7559 H       
  49 H49           -0.2079     4.7967     9.2672 H       
  50 H50           -2.9283     6.1143     8.8720 H       
  51 H51           -2.2258     5.5276    10.3986 H       
  52 H52           -1.5221     6.9436     9.5812 H       
  53 H53           -1.9705     3.1644     9.1320 H       
  54 H54           -2.7776     4.0493     7.8152 H       
  55 H55           -1.2257     3.2302     7.5166 H       
  56 H56            0.5955     7.7037     8.4306 H       
  57 H57            2.4594     5.7450     7.0141 H       
  58 H58            2.9628     7.0225     8.1467 H       
  59 H59            1.9713     5.6616     8.7237 H       
  60 H60            1.5787     7.4876     5.5519 H       
  61 H61            0.2271     8.5238     6.0691 H       
  62 H62            1.8686     8.8283     6.6863 H       
@<TRIPOS>BOND
   1    1    2 1
   2    1   10 1
   3    1   28 1
   4    1   29 1
   5    2   30 1
   6    3    4 1
   7    3    8 1
   8    3    9 2
   9    4    5 2
  10    4   31 1
  11    5    6 1
  12    5   27 1
  13    6    7 2
  14    6   32 1
  15    7    8 1
  16    7   33 1
  17    8   11 1
  18    9   10 1
  19   10   11 2
  20   11   12 1
  21   12   13 1
  22   12   34 1
  23   12   35 1
  24   13   14 1
  25   13   36 1
  26   13   37 1
  27   14   15 1
  28   14   38 1
  29   14   39 1
  30   15   16 1
  31   15   40 1
  32   15   41 1
  33   16   17 1
  34   17   18 1
  35   17   21 1
  36   17   24 1
  37   18   19 1
  38   18   20 1
  39   18   42 1
  40   19   43 1
  41   19   44 1
  42   19   45 1
  43   20   46 1
  44   20   47 1
  45   20   48 1
  46   21   22 1
  47   21   23 1
  48   21   49 1
  49   22   50 1
  50   22   51 1
  51   22   52 1
  52   23   53 1
  53   23   54 1
  54   23   55 1
  55   24   25 1
  56   24   26 1
  57   24   56 1
  58   25   57 1
  59   25   58 1
  60   25   59 1
  61   26   60 1
  62   26   61 1
  63   26   62 1

#	End of record

