#	Name: ASD01670077
#	Creating user name:	WinNT
#	Creation time:	15. 06. 2019 19:22

#	Modifying user name:	WinNT
#	Modification time:	15. 06. 2019 19:22

#	Program:	/corina/corina34_cracker 3.40 0067  02.08.2006

@<TRIPOS>MOLECULE
ASD01670077
  45   48    0    0    0
SMALL
NO_CHARGES


@<TRIPOS>ATOM
   1 C1            -0.0144     1.3821     0.0167 C.ar    
   2 C2             0.0100     0.0037     0.1193 C.ar    
   3 C3             1.2177    -0.6688     0.1091 C.ar    
   4 C4             2.4009     0.0370    -0.0041 C.ar    
   5 C5             2.3764     1.4152    -0.1076 C.ar    
   6 C6             1.1688     2.0879    -0.0960 C.ar    
   7 C7            -2.2480     2.8126     1.8943 C.ar    
   8 C8            -3.1507     2.0263     2.5853 C.ar    
   9 C9            -3.4899     2.3446     3.8870 C.ar    
  10 C10           -2.9261     3.4492     4.4978 C.ar    
  11 C11           -2.0227     4.2350     3.8070 C.ar    
  12 C12           -1.6845     3.9175     2.5049 C.ar    
  13 C13           -1.5890     4.0165    -1.0514 C.ar    
  14 C14           -1.7051     3.9657    -2.4279 C.ar    
  15 C15           -1.5966     5.1244    -3.1739 C.ar    
  16 C16           -1.3724     6.3340    -2.5433 C.ar    
  17 C17           -1.2572     6.3849    -1.1667 C.ar    
  18 C18           -1.3644     5.2260    -0.4208 C.ar    
  19 C19           -3.1621     1.1872    -0.7671 C.ar    
  20 C20           -3.7413     0.1888    -0.0064 C.ar    
  21 C21           -4.7239    -0.6150    -0.5535 C.ar    
  22 C22           -5.1277    -0.4200    -1.8612 C.ar    
  23 C23           -4.5492     0.5791    -2.6215 C.ar    
  24 C24           -3.5656     1.3819    -2.0748 C.ar    
  25 As25          -1.7534     2.3496     0.0231 Du      
  26 H26           -0.9144    -0.5476     0.2077 H       
  27 H27            1.2368    -1.7456     0.1899 H       
  28 H28            3.3445    -0.4884    -0.0114 H       
  29 H29            3.3009     1.9667    -0.1953 H       
  30 H30            1.1497     3.1647    -0.1760 H       
  31 H31           -3.5912     1.1633     2.1081 H       
  32 H32           -4.1957     1.7307     4.4267 H       
  33 H33           -3.1917     3.6983     5.5146 H       
  34 H34           -1.5828     5.0984     4.2840 H       
  35 H35           -0.9793     4.5319     1.9649 H       
  36 H36           -1.8802     3.0207    -2.9206 H       
  37 H37           -1.6866     5.0847    -4.2494 H       
  38 H38           -1.2869     7.2392    -3.1262 H       
  39 H39           -1.0814     7.3298    -0.6741 H       
  40 H40           -1.2736     5.2656     0.6546 H       
  41 H41           -3.4258     0.0364     1.0152 H       
  42 H42           -5.1759    -1.3955     0.0405 H       
  43 H43           -5.8949    -1.0484    -2.2888 H       
  44 H44           -4.8641     0.7309    -3.6433 H       
  45 H45           -3.1130     2.1619    -2.6691 H       
@<TRIPOS>BOND
   1    1    2 ar
   2    1    6 ar
   3    1   25 1
   4    2    3 ar
   5    2   26 1
   6    3    4 ar
   7    3   27 1
   8    4    5 ar
   9    4   28 1
  10    5    6 ar
  11    5   29 1
  12    6   30 1
  13    7    8 ar
  14    7   12 ar
  15    7   25 1
  16    8    9 ar
  17    8   31 1
  18    9   10 ar
  19    9   32 1
  20   10   11 ar
  21   10   33 1
  22   11   12 ar
  23   11   34 1
  24   12   35 1
  25   13   14 ar
  26   13   18 ar
  27   13   25 1
  28   14   15 ar
  29   14   36 1
  30   15   16 ar
  31   15   37 1
  32   16   17 ar
  33   16   38 1
  34   17   18 ar
  35   17   39 1
  36   18   40 1
  37   19   20 ar
  38   19   24 ar
  39   19   25 1
  40   20   21 ar
  41   20   41 1
  42   21   22 ar
  43   21   42 1
  44   22   23 ar
  45   22   43 1
  46   23   24 ar
  47   23   44 1
  48   24   45 1

#	End of record

