#	Name: ASD06610075
#	Creating user name:	WinNT
#	Creation time:	15. 06. 2019 21:07

#	Modifying user name:	WinNT
#	Modification time:	15. 06. 2019 21:07

#	Program:	/corina/corina34_cracker 3.40 0067  02.08.2006

@<TRIPOS>MOLECULE
ASD06610075
 460  461    0    0    0
SMALL
NO_CHARGES


@<TRIPOS>ATOM
   1 C1            -9.1877    -3.8217     9.6666 C.2     
   2 O2            -9.8905    -4.6948    10.1298 O.2     
   3 N3            -7.2992    -5.0101    10.6289 N.3     
   4 C4            -7.6904    -3.9915     9.6454 C.3     
   5 C5            -7.2470    -4.4336     8.2494 C.3     
   6 C6            -5.7190    -4.4855     8.1923 C.3     
   7 C7            -5.2822    -4.9209     6.8172 C.2     
   8 O8            -6.1111    -5.1655     5.9671 O.2     
   9 N9            -3.9701    -5.0385     6.5327 N.am    
  10 C10          -11.6128    -1.5899     8.0851 C.2     
  11 O11          -10.7685    -0.9866     7.4573 O.2     
  12 N12           -9.7460    -2.7019     9.1657 N.am    
  13 C13          -11.2019    -2.5395     9.1808 C.3     
  14 C14          -11.6382    -1.9756    10.5346 C.3     
  15 C15          -11.2334    -2.9463    11.6458 C.3     
  16 O16          -11.0049    -0.7129    10.7510 O.3     
  17 C17          -14.6557     0.1746     7.2055 C.2     
  18 O18          -15.1944    -0.1799     8.2326 O.2     
  19 N19          -12.9185    -1.4111     7.8029 N.am    
  20 C20          -13.3235    -0.4102     6.8127 C.3     
  21 C21          -13.4422    -1.0717     5.4381 C.3     
  22 C22          -14.3713    -2.2835     5.5339 C.3     
  23 C23          -15.7956    -1.8118     5.8332 C.3     
  24 C24          -12.0584    -1.5257     4.9694 C.3     
  25 C25          -17.2638     2.0704     5.4830 C.2     
  26 O26          -16.6786     2.0186     4.4220 O.2     
  27 N27          -15.2484     1.0916     6.4154 N.am    
  28 C28          -16.5915     1.5790     6.7390 C.3     
  29 C29          -16.4887     2.7271     7.7451 C.3     
  30 C30          -20.5505     3.5466     4.6508 C.2     
  31 O31          -20.9499     3.5086     5.7954 O.2     
  32 N32          -18.5153     2.5675     5.5389 N.am    
  33 C33          -19.1689     3.0452     4.3179 C.3     
  34 C34          -23.5603     4.4362     2.7766 C.2     
  35 O35          -23.1066     4.0082     1.7365 O.2     
  36 N36          -21.3422     4.0372     3.6767 N.am    
  37 C37          -22.6853     4.5246     4.0004 C.3     
  38 C38          -22.6017     5.9804     4.4635 C.3     
  39 C39          -21.8291     6.0530     5.7554 C.2     
  40 C40          -20.7421     6.8138     5.9857 C.2     
  41 N41          -20.3609     6.5786     7.2792 N.pl3   
  42 C42          -21.2289     5.6816     7.7946 C.2     
  43 N43          -22.1072     5.3756     6.8792 N.2     
  44 C44          -26.8131     5.7543     1.7546 C.2     
  45 O45          -26.8902     6.4733     2.7283 O.2     
  46 N46          -24.8469     4.8327     2.8380 N.am    
  47 C47          -25.6975     4.7468     1.6484 C.3     
  48 C48          -26.2892     3.3397     1.5450 C.3     
  49 C49          -25.1811     2.3444     1.3156 C.ar    
  50 C50          -24.5517     1.7501     2.3934 C.ar    
  51 C51          -23.5353     0.8372     2.1829 C.ar    
  52 C52          -23.1485     0.5182     0.8947 C.ar    
  53 C53          -23.7784     1.1118    -0.1831 C.ar    
  54 C54          -24.7978     2.0215     0.0273 C.ar    
  55 C55          -29.9808     6.3781     0.0401 C.2     
  56 O56          -29.9158     5.3365    -0.5776 O.2     
  57 N57          -27.7253     5.8563     0.7677 N.am    
  58 C58          -28.8099     6.8358     0.8710 C.3     
  59 C59          -28.3217     8.1930     0.3607 C.3     
  60 C60          -27.2155     8.7156     1.2794 C.3     
  61 C61          -26.7274    10.0728     0.7691 C.3     
  62 N62          -25.6682    10.5732     1.6488 N.pl3   
  63 C63          -25.0726    11.7845     1.3875 C.2     
  64 N64          -25.4504    12.4877     0.3571 N.2     
  65 N65          -24.0786    12.2541     2.2131 N.pl3   
  66 C66          -33.0652     7.8753    -1.2281 C.2     
  67 O67          -32.7358     8.9881    -0.8757 O.2     
  68 N68          -31.1003     7.1265    -0.0166 N.am    
  69 C69          -32.2386     6.6816    -0.8244 C.3     
  70 C70          -33.0999     5.7184    -0.0052 C.3     
  71 C71          -32.2991     4.4506     0.2986 C.3     
  72 C72          -33.1604     3.4874     1.1179 C.3     
  73 C73          -32.3596     2.2195     1.4216 C.3     
  74 N74          -33.1866     1.2947     2.2082 N.3     
  75 C75          -36.3909     8.4292    -2.6407 C.2     
  76 O76          -36.6993     7.2629    -2.5160 O.2     
  77 N77          -34.1704     7.7063    -1.9807 N.am    
  78 C78          -34.9739     8.8667    -2.3730 C.3     
  79 C79          -34.3847     9.4902    -3.6400 C.3     
  80 C80          -32.9925    10.0464    -3.3347 C.3     
  81 C81          -32.4122    10.6605    -4.5826 C.2     
  82 O82          -33.0470    10.6539    -5.6106 O.2     
  83 O83          -31.1901    11.2148    -4.5520 O.3     
  84 C84          -39.3474     9.8785    -4.2288 C.2     
  85 O85          -38.7243    10.8312    -4.6473 O.2     
  86 N86          -37.3156     9.3340    -3.0187 N.am    
  87 C87          -38.6931     8.9087    -3.2789 C.3     
  88 C88          -39.4743     8.8775    -1.9637 C.3     
  89 C89          -38.8856     7.8038    -1.0462 C.3     
  90 C90          -39.6668     7.7726     0.2690 C.3     
  91 N91          -39.1031     6.7446     1.1474 N.pl3   
  92 C92          -39.6454     6.5319     2.3928 C.2     
  93 N93          -40.6610     7.2448     2.7918 N.2     
  94 N94          -39.1164     5.5671     3.2172 N.pl3   
  95 C95          -42.7564    10.7463    -5.0867 C.2     
  96 O96          -43.1869    10.0551    -4.1879 O.2     
  97 N97          -40.6249     9.6872    -4.6134 N.am    
  98 C98          -41.2952    10.6854    -5.4503 C.3     
  99 C99          -41.1520    10.2954    -6.9229 C.3     
 100 C100         -41.6464     8.8611    -7.1210 C.3     
 101 C101         -43.1530     8.8006    -6.8614 C.3     
 102 C102         -39.6814    10.3893    -7.3346 C.3     
 103 C103         -45.8210    12.1446    -6.5066 C.2     
 104 O104         -45.3077    12.3119    -7.5926 O.2     
 105 N105         -43.5848    11.5688    -5.7603 N.am    
 106 C106         -44.9785    11.7152    -5.3332 C.3     
 107 C107         -45.0654    12.7710    -4.2293 C.3     
 108 C108         -44.3125    12.2783    -2.9919 C.3     
 109 C109         -44.3981    13.3183    -1.9046 C.2     
 110 O110         -44.9996    14.3479    -2.0995 O.2     
 111 O111         -43.8062    13.1008    -0.7197 O.3     
 112 C112         -49.3974    12.9109    -7.0504 C.2     
 113 O113         -49.7048    12.6911    -5.8980 O.2     
 114 N114         -47.1447    12.3428    -6.3491 N.am    
 115 C115         -47.9637    12.7603    -7.4898 C.3     
 116 C116         -52.6425    13.2545    -8.6980 C.2     
 117 O117         -52.1736    13.0253    -9.7928 O.2     
 118 N118         -50.3380    13.2898    -7.9382 N.am    
 119 C119         -51.7317    13.4361    -7.5112 C.3     
 120 C120         -51.9394    14.8309    -6.9176 C.3     
 121 C121         -51.1080    14.9709    -5.6409 C.3     
 122 C122         -51.2172    16.4038    -5.1157 C.3     
 123 C123         -51.6317    13.9984    -4.5821 C.3     
 124 C124         -56.1635    13.8903    -9.4469 C.2     
 125 O125         -56.3337    14.4919    -8.4076 O.2     
 126 N126         -53.9781    13.3467    -8.5428 N.am    
 127 C127         -54.8635    13.1702    -9.6965 C.3     
 128 C128         -55.1381    11.6796    -9.9052 C.3     
 129 C129         -53.8365    10.9689   -10.2815 C.3     
 130 C130         -54.1111     9.4783   -10.4902 C.3     
 131 N131         -52.8647     8.7979   -10.8504 N.pl3   
 132 C132         -52.8647     7.4438   -11.0882 C.2     
 133 N133         -51.7557     6.8384   -11.4087 N.2     
 134 N134         -54.0343     6.7282   -10.9879 N.pl3   
 135 C135         -59.4939    13.9275   -10.9537 C.2     
 136 O136         -59.2421    12.9808   -11.6687 O.2     
 137 N137         -57.1371    13.8660   -10.3786 N.am    
 138 C138         -58.4009    14.5661   -10.1360 C.3     
 139 C139         -58.2554    16.0352   -10.5378 C.3     
 140 C140         -57.2341    16.7151    -9.6239 C.3     
 141 C141         -57.0886    18.1843   -10.0257 C.3     
 142 C142         -56.0672    18.8642    -9.1117 C.3     
 143 N143         -55.9275    20.2748    -9.4975 N.3     
 144 C144         -62.9059    14.7950   -11.9381 C.2     
 145 O145         -62.8063    15.9207   -11.4977 O.2     
 146 N146         -60.7514    14.4084   -10.8903 N.am    
 147 C147         -61.8139    13.7877   -11.6852 C.3     
 148 C148         -62.3893    12.5925   -10.9227 C.3     
 149 C149         -61.3126    11.5156   -10.7749 C.3     
 150 C150         -61.8879    10.3204   -10.0124 C.3     
 151 N151         -60.8570     9.2892    -9.8710 N.pl3   
 152 C152         -61.1443     8.1152    -9.2158 C.2     
 153 N153         -62.3340     7.9195    -8.7206 N.2     
 154 N154         -60.1768     7.1475    -9.0831 N.pl3   
 155 C155         -66.3556    14.7042   -13.1441 C.2     
 156 O156         -66.3925    13.4923   -13.1159 O.2     
 157 N157         -63.9931    14.4451   -12.6536 N.am    
 158 C158         -65.0546    15.4244   -12.8995 C.3     
 159 C159         -64.6984    16.2652   -14.1271 C.3     
 160 C160         -63.4452    17.0920   -13.8328 C.3     
 161 C161         -63.0890    17.9329   -15.0604 C.3     
 162 N162         -61.8890    18.7245   -14.7786 N.pl3   
 163 C163         -61.3767    19.5626   -15.7406 C.2     
 164 N164         -60.3091    20.2670   -15.4899 N.2     
 165 N165         -61.9907    19.6576   -16.9671 N.pl3   
 166 C166         -69.6529    15.5800   -14.4569 C.2     
 167 O167         -69.2816    16.6789   -14.8113 O.2     
 168 N168         -67.4781    15.4069   -13.3942 N.am    
 169 C169         -68.7428    14.7069   -13.6320 C.3     
 170 C170         -69.4125    14.3943   -12.2923 C.3     
 171 C171         -68.5456    13.4084   -11.5066 C.3     
 172 C172         -69.2153    13.0958   -10.1669 C.3     
 173 N173         -68.3852    12.1517    -9.4146 N.pl3   
 174 C174         -68.7870    11.7221    -8.1720 C.2     
 175 N175         -68.0485    10.8821    -7.5026 N.2     
 176 N176         -69.9677    12.1783    -7.6354 N.pl3   
 177 C177         -73.1982    15.6017   -15.3479 C.2     
 178 O178         -73.4558    14.7052   -14.5727 O.2     
 179 N179         -70.8794    15.1398   -14.8009 N.am    
 180 C180         -71.7642    15.9886   -15.6027 C.3     
 181 C181         -71.4418    15.8027   -17.0868 C.3     
 182 C182         -70.0270    16.3121   -17.3691 C.3     
 183 C183         -69.6581    16.0132   -18.8236 C.3     
 184 C184         -69.9712    17.8221   -17.1288 C.3     
 185 C185         -76.4084    16.3076   -16.9732 C.2     
 186 O186         -76.0081    17.2307   -17.6505 O.2     
 187 N187         -74.1944    16.2519   -15.9813 N.am    
 188 C188         -75.5802    15.8054   -15.8188 C.3     
 189 C189         -76.1437    16.3584   -14.5082 C.3     
 190 C190         -77.5554    15.8108   -14.2888 C.3     
 191 C191         -77.4904    14.2939   -14.0997 C.3     
 192 C192         -78.1641    16.4547   -13.0415 C.3     
 193 C193         -79.1883    17.3624   -18.0814 C.2     
 194 O194         -79.1497    17.8203   -16.9640 O.2     
 195 N195         -77.5940    15.7310   -17.2531 N.am    
 196 C196         -78.3554    16.1559   -18.4304 C.3     
 197 C197         -79.2717    15.0173   -18.8833 C.3     
 198 O198         -80.2493    14.7620   -17.8728 O.3     
 199 O199         -79.9728    17.9282   -19.0120 O.3     
 200 C200          -3.5795    -5.4279     5.3029 C.2     
 201 O201          -4.4083    -5.6724     4.4528 O.2     
 202 C202           9.4937    -9.6649    -7.4379 C.3     
 203 C203           8.0041    -9.5315    -7.1149 C.3     
 204 C204           7.8357    -9.0784    -5.6632 C.3     
 205 C205           6.3461    -8.9450    -5.3402 C.3     
 206 C206           6.1777    -8.4919    -3.8886 C.3     
 207 C207           4.6881    -8.3585    -3.5655 C.3     
 208 C208           4.5197    -7.9054    -2.1139 C.3     
 209 C209           3.0301    -7.7720    -1.7909 C.3     
 210 C210           2.8617    -7.3189    -0.3392 C.3     
 211 C211           1.3721    -7.1854    -0.0162 C.3     
 212 C212           1.2037    -6.7323     1.4354 C.3     
 213 C213          -0.2859    -6.5989     1.7585 C.3     
 214 C214          -0.4543    -6.1458     3.2101 C.3     
 215 C215          -1.9439    -6.0124     3.5331 C.3     
 216 C216          -2.1123    -5.5593     4.9848 C.3     
 217 H217          -7.7286    -5.8988    10.4193 H       
 218 H218          -6.2952    -5.0967    10.6799 H       
 219 H219          -7.2137    -3.0436     9.8949 H       
 220 H220          -7.6525    -5.4225     8.0356 H       
 221 H221          -7.6143    -3.7225     7.5094 H       
 222 H222          -5.3135    -3.4966     8.4061 H       
 223 H223          -5.3517    -5.1966     8.9323 H       
 224 H224          -3.3069    -4.8428     7.2129 H       
 225 H225          -9.1839    -2.0036     8.7952 H       
 226 H226         -11.6772    -3.5072     9.0201 H       
 227 H227         -12.7203    -1.8454    10.5423 H       
 228 H228         -10.1462    -2.9999    11.7031 H       
 229 H229         -11.6305    -2.5946    12.5979 H       
 230 H230         -11.6350    -3.9359    11.4278 H       
 231 H231         -11.2169    -0.0469    10.0828 H       
 232 H232         -13.5901    -1.9451     8.2554 H       
 233 H233         -12.5767     0.3826     6.7711 H       
 234 H234         -13.8508    -0.3561     4.7247 H       
 235 H235         -14.3594    -2.8260     4.5885 H       
 236 H236         -14.0304    -2.9404     6.3341 H       
 237 H237         -16.0621    -1.0048     5.1508 H       
 238 H238         -16.4888    -2.6427     5.7016 H       
 239 H239         -15.8508    -1.4519     6.8606 H       
 240 H240         -11.6910    -2.3116     5.6293 H       
 241 H241         -12.1273    -1.9089     3.9513 H       
 242 H242         -11.3710    -0.6801     4.9937 H       
 243 H243         -14.7857     1.4289     5.6324 H       
 244 H244         -17.1777     0.7683     7.1716 H       
 245 H245         -17.4880     3.0897     7.9860 H       
 246 H246         -16.0024     2.3716     8.6536 H       
 247 H247         -15.9024     3.5378     7.3126 H       
 248 H248         -18.9833     2.6089     6.3875 H       
 249 H249         -19.2421     2.2273     3.6011 H       
 250 H250         -18.5826     3.8559     3.8853 H       
 251 H251         -21.0228     4.0676     2.7614 H       
 252 H252         -23.1114     3.9140     4.7965 H       
 253 H253         -22.0951     6.5750     3.7033 H       
 254 H254         -23.6075     6.3705     4.6193 H       
 255 H255         -20.2629     7.4810     5.2845 H       
 256 H256         -19.6079     6.9810     7.7395 H       
 257 H257         -21.2029     5.2862     8.7992 H       
 258 H258         -25.2098     5.1750     3.6700 H       
 259 H259         -25.1018     4.9567     0.7599 H       
 260 H260         -26.8106     3.0959     2.4706 H       
 261 H261         -26.9907     3.3008     0.7117 H       
 262 H262         -24.8540     1.9993     3.3998 H       
 263 H263         -23.0431     0.3734     3.0250 H       
 264 H264         -22.3538    -0.1945     0.7303 H       
 265 H265         -23.4760     0.8629    -1.1896 H       
 266 H266         -25.2925     2.4825    -0.8149 H       
 267 H267         -27.6637     5.2813    -0.0110 H       
 268 H268         -29.1176     6.9285     1.9126 H       
 269 H269         -27.9315     8.0818    -0.6510 H       
 270 H270         -29.1523     8.8989     0.3541 H       
 271 H271         -27.6058     8.8268     2.2911 H       
 272 H272         -26.3850     8.0097     1.2860 H       
 273 H273         -26.3371     9.9616    -0.2426 H       
 274 H274         -27.5580    10.7787     0.7625 H       
 275 H275         -25.3871    10.0499     2.4156 H       
 276 H276         -25.0302    13.3423     0.1728 H       
 277 H277         -23.7975    11.7307     2.9800 H       
 278 H278         -23.6584    13.1087     2.0288 H       
 279 H279         -31.1523     7.9596     0.4774 H       
 280 H280         -31.8741     6.1735    -1.7172 H       
 281 H281         -33.3911     6.1969     0.9299 H       
 282 H282         -33.9929     5.4568    -0.5729 H       
 283 H283         -32.0079     3.9720    -0.6364 H       
 284 H284         -31.4062     4.7122     0.8664 H       
 285 H285         -33.4516     3.9659     2.0529 H       
 286 H286         -34.0534     3.2258     0.5501 H       
 287 H287         -32.0684     1.7410     0.4866 H       
 288 H288         -31.4667     2.4811     1.9894 H       
 289 H289         -32.6797     0.4488     2.4219 H       
 290 H290         -33.5228     1.7373     3.0504 H       
 291 H291         -34.4338     6.8163    -2.2625 H       
 292 H292         -34.9666     9.6025    -1.5688 H       
 293 H293         -34.3098     8.7303    -4.4178 H       
 294 H294         -35.0317    10.2979    -3.9822 H       
 295 H295         -33.0674    10.8063    -2.5568 H       
 296 H296         -32.3455     9.2387    -2.9925 H       
 297 H297         -30.8601    11.5961    -5.3771 H       
 298 H298         -37.0690    10.2668    -3.1184 H       
 299 H299         -38.6883     7.9130    -3.7223 H       
 300 H300         -39.4044     9.8500    -1.4764 H       
 301 H301         -40.5201     8.6476    -2.1676 H       
 302 H302         -38.9555     6.8313    -1.5335 H       
 303 H303         -37.8398     8.0337    -0.8423 H       
 304 H304         -39.5969     8.7451     0.7562 H       
 305 H305         -40.7126     7.5427     0.0650 H       
 306 H306         -38.3473     6.2141     0.8504 H       
 307 H307         -41.0435     7.0947     3.6705 H       
 308 H308         -38.3606     5.0366     2.9202 H       
 309 H309         -39.4990     5.4170     4.0958 H       
 310 H310         -41.1004     8.8886    -4.3360 H       
 311 H311         -40.8392    11.6618    -5.2871 H       
 312 H312         -41.7453    10.9724    -7.5374 H       
 313 H313         -41.4409     8.5439    -8.1434 H       
 314 H314         -41.1309     8.1996    -6.4248 H       
 315 H315         -43.5320     7.8196    -7.1480 H       
 316 H316         -43.3462     8.9694    -5.8020 H       
 317 H317         -43.6542     9.5696    -7.4492 H       
 318 H318         -39.0794     9.7611    -6.6780 H       
 319 H319         -39.5700    10.0501    -8.3645 H       
 320 H320         -39.3471    11.4237    -7.2546 H       
 321 H321         -43.2582    12.0638    -6.5278 H       
 322 H322         -45.3441    10.7613    -4.9532 H       
 323 H323         -44.6184    13.7012    -4.5802 H       
 324 H324         -46.1108    12.9441    -3.9736 H       
 325 H325         -44.7595    11.3482    -2.6410 H       
 326 H326         -43.2672    12.1052    -3.2476 H       
 327 H327         -43.8885    13.7969    -0.0535 H       
 328 H328         -47.5552    12.2090    -5.4804 H       
 329 H329         -47.9018    12.0081    -8.2762 H       
 330 H330         -47.5981    13.7142    -7.8698 H       
 331 H331         -50.0922    13.4655    -8.8600 H       
 332 H332         -51.9619    12.6827    -6.7578 H       
 333 H333         -51.6249    15.5839    -7.6403 H       
 334 H334         -52.9942    14.9720    -6.6817 H       
 335 H335         -50.0649    14.7426    -5.8597 H       
 336 H336         -52.2603    16.6321    -4.8969 H       
 337 H337         -50.6249    16.5035    -4.2061 H       
 338 H338         -50.8441    17.0966    -5.8700 H       
 339 H339         -51.0393    14.0981    -3.6726 H       
 340 H340         -52.6748    14.2267    -4.3633 H       
 341 H341         -51.5539    12.9776    -4.9563 H       
 342 H342         -54.3531    13.5300    -7.6672 H       
 343 H343         -54.3863    13.5798   -10.5868 H       
 344 H344         -55.5333    11.2505    -8.9845 H       
 345 H345         -55.8660    11.5529   -10.7067 H       
 346 H346         -53.4413    11.3980   -11.2023 H       
 347 H347         -53.1086    11.0956    -9.4800 H       
 348 H348         -54.5062     9.0493    -9.5694 H       
 349 H349         -54.8389     9.3517   -11.2916 H       
 350 H350         -52.0395     9.3028   -10.9212 H       
 351 H351         -51.7557     5.8830   -11.5765 H       
 352 H352         -54.8596     7.1788   -10.7494 H       
 353 H353         -54.0343     5.7729   -11.1557 H       
 354 H354         -57.0010    13.3849   -11.2099 H       
 355 H355         -58.6543    14.5022    -9.0778 H       
 356 H356         -57.9158    16.0971   -11.5717 H       
 357 H357         -59.2190    16.5354   -10.4414 H       
 358 H358         -57.5737    16.6532    -8.5900 H       
 359 H359         -56.2704    16.2149    -9.7203 H       
 360 H360         -56.7489    18.2462   -11.0596 H       
 361 H361         -58.0522    18.6845    -9.9292 H       
 362 H362         -56.4068    18.8023    -8.0779 H       
 363 H363         -55.1036    18.3640    -9.2082 H       
 364 H364         -55.2578    20.7462    -8.9082 H       
 365 H365         -55.6759    20.3602   -10.4709 H       
 366 H366         -60.9528    15.1656   -10.3185 H       
 367 H367         -61.4049    13.4486   -12.6369 H       
 368 H368         -62.7178    12.9157    -9.9349 H       
 369 H369         -63.2377    12.1850   -11.4725 H       
 370 H370         -60.9841    11.1923   -11.7627 H       
 371 H371         -60.4642    11.9230   -10.2252 H       
 372 H372         -62.2165    10.6436    -9.0246 H       
 373 H373         -62.7363     9.9129   -10.5622 H       
 374 H374         -59.9716     9.4348   -10.2395 H       
 375 H375         -62.5368     7.0912    -8.2584 H       
 376 H376         -59.2915     7.2930    -9.4516 H       
 377 H377         -60.3796     6.3191    -8.6209 H       
 378 H378         -64.0727    13.5448   -13.0058 H       
 379 H379         -65.1571    16.0748   -12.0308 H       
 380 H380         -64.5089    15.6075   -14.9754 H       
 381 H381         -65.5271    16.9329   -14.3630 H       
 382 H382         -63.6347    17.7497   -12.9845 H       
 383 H383         -62.6165    16.4244   -13.5969 H       
 384 H384         -62.8995    17.2752   -15.9087 H       
 385 H385         -63.9176    18.6005   -15.2963 H       
 386 H386         -61.4558    18.6575   -13.9133 H       
 387 H387         -59.9477    20.8582   -16.1687 H       
 388 H388         -62.7852    19.1334   -17.1537 H       
 389 H389         -61.6293    20.2489   -17.6459 H       
 390 H390         -67.4486    16.3762   -13.4168 H       
 391 H391         -68.5485    13.7771   -14.1668 H       
 392 H392         -69.5262    15.3147   -11.7195 H       
 393 H393         -70.3934    13.9537   -12.4705 H       
 394 H394         -68.4319    12.4880   -12.0794 H       
 395 H395         -67.5647    13.8490   -11.3285 H       
 396 H396         -69.3290    14.0162    -9.5941 H       
 397 H397         -70.1962    12.6552   -10.3451 H       
 398 H398         -67.5522    11.8298    -9.7932 H       
 399 H399         -68.3319    10.5789    -6.6259 H       
 400 H400         -70.5173    12.8034    -8.1335 H       
 401 H401         -70.2511    11.8751    -6.7587 H       
 402 H402         -71.1764    14.2609   -14.5174 H       
 403 H403         -71.6148    17.0323   -15.3265 H       
 404 H404         -71.5050    14.7450   -17.3427 H       
 405 H405         -72.1570    16.3651   -17.6871 H       
 406 H406         -69.3217    15.8122   -16.7053 H       
 407 H407         -70.3634    16.5130   -19.4874 H       
 408 H408         -68.6501    16.3760   -19.0247 H       
 409 H409         -69.6979    14.9374   -18.9948 H       
 410 H410         -70.6765    18.3219   -17.7927 H       
 411 H411         -70.2340    18.0350   -16.0926 H       
 412 H412         -68.9632    18.1850   -17.3299 H       
 413 H413         -73.9938    17.0155   -16.5449 H       
 414 H414         -75.6107    14.7161   -15.7964 H       
 415 H415         -75.5033    16.0542   -13.6803 H       
 416 H416         -76.1799    17.4466   -14.5587 H       
 417 H417         -78.1739    16.0426   -15.1559 H       
 418 H418         -78.4818    13.9161   -13.8499 H       
 419 H419         -77.1455    13.8272   -15.0223 H       
 420 H420         -76.7975    14.0579   -13.2920 H       
 421 H421         -78.2104    17.5353   -13.1762 H       
 422 H422         -79.1698    16.0646   -12.8852 H       
 423 H423         -77.5456    16.2228   -12.1744 H       
 424 H424         -77.9431    15.0346   -16.6751 H       
 425 H425         -77.6668    16.4104   -19.2361 H       
 426 H426         -79.7719    15.3001   -19.8096 H       
 427 H427         -78.6786    14.1183   -19.0506 H       
 428 H428         -80.8658    14.0502   -18.0929 H       
 429 H429         -80.4885    18.7001   -18.7411 H       
 430 H430           9.6137    -9.9877    -8.4721 H       
 431 H431           9.9833    -8.7011    -7.2990 H       
 432 H432           9.9452   -10.4011    -6.7728 H       
 433 H433           7.5526    -8.7954    -7.7800 H       
 434 H434           7.5145   -10.4954    -7.2538 H       
 435 H435           8.2872    -9.8145    -4.9981 H       
 436 H436           8.3253    -8.1145    -5.5243 H       
 437 H437           5.8946    -8.2089    -6.0053 H       
 438 H438           5.8565    -9.9088    -5.4791 H       
 439 H439           6.6292    -9.2280    -3.2235 H       
 440 H440           6.6673    -7.5280    -3.7497 H       
 441 H441           4.2366    -7.6223    -4.2306 H       
 442 H442           4.1985    -9.3223    -3.7045 H       
 443 H443           4.9712    -8.6415    -1.4488 H       
 444 H444           5.0093    -6.9415    -1.9750 H       
 445 H445           2.5786    -7.0358    -2.4560 H       
 446 H446           2.5405    -8.7358    -1.9298 H       
 447 H447           3.3132    -8.0550     0.3259 H       
 448 H448           3.3513    -6.3550    -0.2003 H       
 449 H449           0.9206    -6.4493    -0.6813 H       
 450 H450           0.8825    -8.1493    -0.1551 H       
 451 H451           1.6552    -7.4685     2.1005 H       
 452 H452           1.6933    -5.7685     1.5743 H       
 453 H453          -0.7374    -5.8628     1.0934 H       
 454 H454          -0.7755    -7.5628     1.6195 H       
 455 H455          -0.0028    -6.8819     3.8752 H       
 456 H456           0.0353    -5.1820     3.3490 H       
 457 H457          -2.3954    -5.2763     2.8680 H       
 458 H458          -2.4335    -6.9763     3.3942 H       
 459 H459          -1.6227    -4.5954     5.1237 H       
 460 H460          -1.6608    -6.2954     5.6499 H       
@<TRIPOS>BOND
   1    1    2 2
   2    1    4 1
   3    1   12 am
   4    3    4 1
   5    3  217 1
   6    3  218 1
   7    4    5 1
   8    4  219 1
   9    5    6 1
  10    5  220 1
  11    5  221 1
  12    6    7 1
  13    6  222 1
  14    6  223 1
  15    7    8 2
  16    7    9 am
  17    9  200 am
  18    9  224 1
  19   10   11 2
  20   10   13 1
  21   10   19 am
  22   12   13 1
  23   12  225 1
  24   13   14 1
  25   13  226 1
  26   14   15 1
  27   14   16 1
  28   14  227 1
  29   15  228 1
  30   15  229 1
  31   15  230 1
  32   16  231 1
  33   17   18 2
  34   17   20 1
  35   17   27 am
  36   19   20 1
  37   19  232 1
  38   20   21 1
  39   20  233 1
  40   21   22 1
  41   21   24 1
  42   21  234 1
  43   22   23 1
  44   22  235 1
  45   22  236 1
  46   23  237 1
  47   23  238 1
  48   23  239 1
  49   24  240 1
  50   24  241 1
  51   24  242 1
  52   25   26 2
  53   25   28 1
  54   25   32 am
  55   27   28 1
  56   27  243 1
  57   28   29 1
  58   28  244 1
  59   29  245 1
  60   29  246 1
  61   29  247 1
  62   30   31 2
  63   30   33 1
  64   30   36 am
  65   32   33 1
  66   32  248 1
  67   33  249 1
  68   33  250 1
  69   34   35 2
  70   34   37 1
  71   34   46 am
  72   36   37 1
  73   36  251 1
  74   37   38 1
  75   37  252 1
  76   38   39 1
  77   38  253 1
  78   38  254 1
  79   39   40 2
  80   39   43 1
  81   40   41 1
  82   40  255 1
  83   41   42 1
  84   41  256 1
  85   42   43 2
  86   42  257 1
  87   44   45 2
  88   44   47 1
  89   44   57 am
  90   46   47 1
  91   46  258 1
  92   47   48 1
  93   47  259 1
  94   48   49 1
  95   48  260 1
  96   48  261 1
  97   49   50 ar
  98   49   54 ar
  99   50   51 ar
 100   50  262 1
 101   51   52 ar
 102   51  263 1
 103   52   53 ar
 104   52  264 1
 105   53   54 ar
 106   53  265 1
 107   54  266 1
 108   55   56 2
 109   55   58 1
 110   55   68 am
 111   57   58 1
 112   57  267 1
 113   58   59 1
 114   58  268 1
 115   59   60 1
 116   59  269 1
 117   59  270 1
 118   60   61 1
 119   60  271 1
 120   60  272 1
 121   61   62 1
 122   61  273 1
 123   61  274 1
 124   62   63 1
 125   62  275 1
 126   63   64 2
 127   63   65 1
 128   64  276 1
 129   65  277 1
 130   65  278 1
 131   66   67 2
 132   66   69 1
 133   66   77 am
 134   68   69 1
 135   68  279 1
 136   69   70 1
 137   69  280 1
 138   70   71 1
 139   70  281 1
 140   70  282 1
 141   71   72 1
 142   71  283 1
 143   71  284 1
 144   72   73 1
 145   72  285 1
 146   72  286 1
 147   73   74 1
 148   73  287 1
 149   73  288 1
 150   74  289 1
 151   74  290 1
 152   75   76 2
 153   75   78 1
 154   75   86 am
 155   77   78 1
 156   77  291 1
 157   78   79 1
 158   78  292 1
 159   79   80 1
 160   79  293 1
 161   79  294 1
 162   80   81 1
 163   80  295 1
 164   80  296 1
 165   81   82 2
 166   81   83 1
 167   83  297 1
 168   84   85 2
 169   84   87 1
 170   84   97 am
 171   86   87 1
 172   86  298 1
 173   87   88 1
 174   87  299 1
 175   88   89 1
 176   88  300 1
 177   88  301 1
 178   89   90 1
 179   89  302 1
 180   89  303 1
 181   90   91 1
 182   90  304 1
 183   90  305 1
 184   91   92 1
 185   91  306 1
 186   92   93 2
 187   92   94 1
 188   93  307 1
 189   94  308 1
 190   94  309 1
 191   95   96 2
 192   95   98 1
 193   95  105 am
 194   97   98 1
 195   97  310 1
 196   98   99 1
 197   98  311 1
 198   99  100 1
 199   99  102 1
 200   99  312 1
 201  100  101 1
 202  100  313 1
 203  100  314 1
 204  101  315 1
 205  101  316 1
 206  101  317 1
 207  102  318 1
 208  102  319 1
 209  102  320 1
 210  103  104 2
 211  103  106 1
 212  103  114 am
 213  105  106 1
 214  105  321 1
 215  106  107 1
 216  106  322 1
 217  107  108 1
 218  107  323 1
 219  107  324 1
 220  108  109 1
 221  108  325 1
 222  108  326 1
 223  109  110 2
 224  109  111 1
 225  111  327 1
 226  112  113 2
 227  112  115 1
 228  112  118 am
 229  114  115 1
 230  114  328 1
 231  115  329 1
 232  115  330 1
 233  116  117 2
 234  116  119 1
 235  116  126 am
 236  118  119 1
 237  118  331 1
 238  119  120 1
 239  119  332 1
 240  120  121 1
 241  120  333 1
 242  120  334 1
 243  121  122 1
 244  121  123 1
 245  121  335 1
 246  122  336 1
 247  122  337 1
 248  122  338 1
 249  123  339 1
 250  123  340 1
 251  123  341 1
 252  124  125 2
 253  124  127 1
 254  124  137 am
 255  126  127 1
 256  126  342 1
 257  127  128 1
 258  127  343 1
 259  128  129 1
 260  128  344 1
 261  128  345 1
 262  129  130 1
 263  129  346 1
 264  129  347 1
 265  130  131 1
 266  130  348 1
 267  130  349 1
 268  131  132 1
 269  131  350 1
 270  132  133 2
 271  132  134 1
 272  133  351 1
 273  134  352 1
 274  134  353 1
 275  135  136 2
 276  135  138 1
 277  135  146 am
 278  137  138 1
 279  137  354 1
 280  138  139 1
 281  138  355 1
 282  139  140 1
 283  139  356 1
 284  139  357 1
 285  140  141 1
 286  140  358 1
 287  140  359 1
 288  141  142 1
 289  141  360 1
 290  141  361 1
 291  142  143 1
 292  142  362 1
 293  142  363 1
 294  143  364 1
 295  143  365 1
 296  144  145 2
 297  144  147 1
 298  144  157 am
 299  146  147 1
 300  146  366 1
 301  147  148 1
 302  147  367 1
 303  148  149 1
 304  148  368 1
 305  148  369 1
 306  149  150 1
 307  149  370 1
 308  149  371 1
 309  150  151 1
 310  150  372 1
 311  150  373 1
 312  151  152 1
 313  151  374 1
 314  152  153 2
 315  152  154 1
 316  153  375 1
 317  154  376 1
 318  154  377 1
 319  155  156 2
 320  155  158 1
 321  155  168 am
 322  157  158 1
 323  157  378 1
 324  158  159 1
 325  158  379 1
 326  159  160 1
 327  159  380 1
 328  159  381 1
 329  160  161 1
 330  160  382 1
 331  160  383 1
 332  161  162 1
 333  161  384 1
 334  161  385 1
 335  162  163 1
 336  162  386 1
 337  163  164 2
 338  163  165 1
 339  164  387 1
 340  165  388 1
 341  165  389 1
 342  166  167 2
 343  166  169 1
 344  166  179 am
 345  168  169 1
 346  168  390 1
 347  169  170 1
 348  169  391 1
 349  170  171 1
 350  170  392 1
 351  170  393 1
 352  171  172 1
 353  171  394 1
 354  171  395 1
 355  172  173 1
 356  172  396 1
 357  172  397 1
 358  173  174 1
 359  173  398 1
 360  174  175 2
 361  174  176 1
 362  175  399 1
 363  176  400 1
 364  176  401 1
 365  177  178 2
 366  177  180 1
 367  177  187 am
 368  179  180 1
 369  179  402 1
 370  180  181 1
 371  180  403 1
 372  181  182 1
 373  181  404 1
 374  181  405 1
 375  182  183 1
 376  182  184 1
 377  182  406 1
 378  183  407 1
 379  183  408 1
 380  183  409 1
 381  184  410 1
 382  184  411 1
 383  184  412 1
 384  185  186 2
 385  185  188 1
 386  185  195 am
 387  187  188 1
 388  187  413 1
 389  188  189 1
 390  188  414 1
 391  189  190 1
 392  189  415 1
 393  189  416 1
 394  190  191 1
 395  190  192 1
 396  190  417 1
 397  191  418 1
 398  191  419 1
 399  191  420 1
 400  192  421 1
 401  192  422 1
 402  192  423 1
 403  193  194 2
 404  193  196 1
 405  193  199 1
 406  195  196 1
 407  195  424 1
 408  196  197 1
 409  196  425 1
 410  197  198 1
 411  197  426 1
 412  197  427 1
 413  198  428 1
 414  199  429 1
 415  200  201 2
 416  200  216 1
 417  202  203 1
 418  202  430 1
 419  202  431 1
 420  202  432 1
 421  203  204 1
 422  203  433 1
 423  203  434 1
 424  204  205 1
 425  204  435 1
 426  204  436 1
 427  205  206 1
 428  205  437 1
 429  205  438 1
 430  206  207 1
 431  206  439 1
 432  206  440 1
 433  207  208 1
 434  207  441 1
 435  207  442 1
 436  208  209 1
 437  208  443 1
 438  208  444 1
 439  209  210 1
 440  209  445 1
 441  209  446 1
 442  210  211 1
 443  210  447 1
 444  210  448 1
 445  211  212 1
 446  211  449 1
 447  211  450 1
 448  212  213 1
 449  212  451 1
 450  212  452 1
 451  213  214 1
 452  213  453 1
 453  213  454 1
 454  214  215 1
 455  214  455 1
 456  214  456 1
 457  215  216 1
 458  215  457 1
 459  215  458 1
 460  216  459 1
 461  216  460 1

#	End of record

