#	Name: ASD04590110
#	Creating user name:	WinNT
#	Creation time:	15. 06. 2019 20:50

#	Modifying user name:	WinNT
#	Modification time:	15. 06. 2019 20:50

#	Program:	/corina/corina34_cracker 3.40 0067  02.08.2006

@<TRIPOS>MOLECULE
ASD04590110
  64   68    0    0    0
SMALL
NO_CHARGES


@<TRIPOS>ATOM
   1 N1            -0.0168     1.2780    -0.0128 N.pl3   
   2 N2             0.0010    -0.0043    -0.0132 N.2     
   3 C3             1.2413    -0.4513    -0.0245 C.2     
   4 C4             2.1013     0.7388    -0.0321 C.2     
   5 C5             1.2292     1.7910    -0.0240 C.2     
   6 C6             1.6767    -1.8610    -0.0282 C.2     
   7 O7             2.8623    -2.1312    -0.0386 O.2     
   8 N8             0.7603    -2.8493    -0.0201 N.am    
   9 C9             1.1688    -4.1842    -0.1365 C.ar    
  10 C10            0.4821    -5.1821     0.5425 C.ar    
  11 C11            0.8846    -6.4978     0.4278 C.ar    
  12 C12            1.9761    -6.8232    -0.3670 C.ar    
  13 C13            2.6626    -5.8251    -1.0464 C.ar    
  14 C14            2.2569    -4.5101    -0.9354 C.ar    
  15 C15            3.5839     0.7880    -0.0451 C.ar    
  16 C16            4.2482     1.5854    -0.9742 C.ar    
  17 C17            4.3160     0.0411     0.8759 C.ar    
  18 C18            5.6958     0.0885     0.8617 C.ar    
  19 C19            6.3545     0.8758    -0.0638 C.ar    
  20 C20            5.6325     1.6270    -0.9813 C.ar    
  21 N21            2.3844    -8.1563    -0.4829 N.3     
  22 C22            3.5519    -8.2745    -1.3675 C.3     
  23 C23            4.0148    -9.7329    -1.4047 C.3     
  24 N24            2.9122   -10.5822    -1.8763 N.3     
  25 C25            1.7447   -10.4640    -0.9917 C.3     
  26 C26            1.2818    -9.0057    -0.9545 C.3     
  27 C27            3.3409   -11.9820    -1.9980 C.3     
  28 O28            6.2843     2.3994    -1.8899 O.3     
  29 C29            7.7125     2.3903    -1.8433 C.3     
  30 C30            8.2559     3.2980    -2.9166 C.ar    
  31 C31            8.4859     4.6331    -2.6416 C.ar    
  32 C32            8.5296     2.7944    -4.1745 C.ar    
  33 C33            9.0280     3.6270    -5.1590 C.ar    
  34 C34            9.2523     4.9634    -4.8857 C.ar    
  35 C35            8.9843     5.4657    -3.6261 C.ar    
  36 H36           -0.8265     1.8122    -0.0091 H       
  37 H37            1.4902     2.8390    -0.0262 H       
  38 H38           -0.1820    -2.6363     0.0663 H       
  39 H39           -0.3666    -4.9290     1.1605 H       
  40 H40            0.3510    -7.2738     0.9564 H       
  41 H41            3.5115    -6.0780    -1.6642 H       
  42 H42            2.7884    -3.7344    -1.4667 H       
  43 H43            3.6852     2.1693    -1.6874 H       
  44 H44            3.8042    -0.5745     1.6008 H       
  45 H45            6.2619    -0.4909     1.5760 H       
  46 H46            7.4339     0.9098    -0.0706 H       
  47 H47            3.2802    -7.9535    -2.3731 H       
  48 H48            4.3589    -7.6463    -0.9905 H       
  49 H49            4.8629    -9.8280    -2.0828 H       
  50 H50            4.3123   -10.0456    -0.4038 H       
  51 H51            0.9376   -11.0922    -1.3687 H       
  52 H52            2.0164   -10.7850     0.0139 H       
  53 H53            0.4337    -8.9105    -0.2764 H       
  54 H54            0.9843    -8.6929    -1.9554 H       
  55 H55            3.6716   -12.3466    -1.0254 H       
  56 H56            2.5059   -12.5886    -2.3486 H       
  57 H57            4.1633   -12.0495    -2.7101 H       
  58 H58            8.0465     2.7416    -0.8670 H       
  59 H59            8.0750     1.3756    -2.0079 H       
  60 H60            8.2760     5.0257    -1.6576 H       
  61 H61            8.3543     1.7503    -4.3880 H       
  62 H62            9.2425     3.2333    -6.1416 H       
  63 H63            9.6420     5.6138    -5.6548 H       
  64 H64            9.1596     6.5098    -3.4125 H       
@<TRIPOS>BOND
   1    1    2 1
   2    1    5 1
   3    1   36 1
   4    2    3 2
   5    3    4 1
   6    3    6 1
   7    4    5 2
   8    4   15 1
   9    5   37 1
  10    6    7 2
  11    6    8 am
  12    8    9 1
  13    8   38 1
  14    9   10 ar
  15    9   14 ar
  16   10   11 ar
  17   10   39 1
  18   11   12 ar
  19   11   40 1
  20   12   13 ar
  21   12   21 1
  22   13   14 ar
  23   13   41 1
  24   14   42 1
  25   15   16 ar
  26   15   17 ar
  27   16   20 ar
  28   16   43 1
  29   17   18 ar
  30   17   44 1
  31   18   19 ar
  32   18   45 1
  33   19   20 ar
  34   19   46 1
  35   20   28 1
  36   21   22 1
  37   21   26 1
  38   22   23 1
  39   22   47 1
  40   22   48 1
  41   23   24 1
  42   23   49 1
  43   23   50 1
  44   24   25 1
  45   24   27 1
  46   25   26 1
  47   25   51 1
  48   25   52 1
  49   26   53 1
  50   26   54 1
  51   27   55 1
  52   27   56 1
  53   27   57 1
  54   28   29 1
  55   29   30 1
  56   29   58 1
  57   29   59 1
  58   30   31 ar
  59   30   32 ar
  60   31   35 ar
  61   31   60 1
  62   32   33 ar
  63   32   61 1
  64   33   34 ar
  65   33   62 1
  66   34   35 ar
  67   34   63 1
  68   35   64 1

#	End of record

