#	Name: ASD08170630
#	Creating user name:	WinNT
#	Creation time:	15. 06. 2019 21:17

#	Modifying user name:	WinNT
#	Modification time:	15. 06. 2019 21:17

#	Program:	/corina/corina34_cracker 3.40 0067  02.08.2006

@<TRIPOS>MOLECULE
ASD08170630
  89   92    0    0    0
SMALL
NO_CHARGES


@<TRIPOS>ATOM
   1 N1            -0.0159     1.3150     0.0224 N.ar    
   2 C2             0.0017    -0.0034     0.0124 C.ar    
   3 C3            -1.2931    -0.7743     0.0243 C.3     
   4 C4            -4.2984    -0.6746     2.4294 C.3     
   5 C5            -5.5932    -1.4455     2.4412 C.2     
   6 N6            -5.8033    -2.5767     3.0361 N.2     
   7 N7            -6.9625    -3.0651     2.9277 N.2     
   8 C8            -7.8359    -2.3975     2.2358 C.2     
   9 S9            -7.0970    -0.9657     1.6538 S.3     
  10 N10           -9.1540    -2.7791     2.0098 N.am    
  11 C11           -3.4530    -1.1158     1.2328 C.3     
  12 C12           -2.1384    -0.3331     1.2208 C.3     
  13 C13            1.2122    -0.6808    -0.0095 C.ar    
  14 C14            2.3785     0.0690    -0.0202 C.ar    
  15 C15            2.2616     1.4575    -0.0083 C.ar    
  16 N16            1.0600     2.0148     0.0126 N.ar    
  17 N17            3.4043     2.2567    -0.0179 N.am    
  18 C18            3.2889     3.5963    -0.1113 C.2     
  19 O19            2.1992     4.1007    -0.2812 O.2     
  20 C20            4.5141     4.4673    -0.0047 C.3     
  21 C21            4.1152     5.9141    -0.1410 C.ar    
  22 C22            3.7798     6.6471     0.9817 C.ar    
  23 C23            3.4138     7.9745     0.8567 C.ar    
  24 C24            3.3838     8.5686    -0.3909 C.ar    
  25 C25            3.7202     7.8356    -1.5138 C.ar    
  26 C26            4.0903     6.5098    -1.3884 C.ar    
  27 C27           -9.6205    -3.9317     2.5297 C.2     
  28 O28           -8.8908    -4.6361     3.1947 O.2     
  29 C29          -11.0488    -4.3451     2.2847 C.3     
  30 C30          -11.3154    -5.6609     2.9693 C.ar    
  31 C31          -11.7760    -5.6812     4.2722 C.ar    
  32 C32          -12.0205    -6.8884     4.9003 C.ar    
  33 C33          -11.8047    -8.0749     4.2251 C.ar    
  34 C34          -11.3447    -8.0546     2.9214 C.ar    
  35 C35          -11.1045    -6.8477     2.2921 C.ar    
  36 C36          -11.1090    -9.3483     2.1854 C.3     
  37 N37          -12.3350    -9.7437     1.4877 N.am    
  38 C38          -12.3600   -10.8769     0.7586 C.2     
  39 O39          -13.4867   -11.2403     0.1175 O.3     
  40 O40          -11.3655   -11.5707     0.6800 O.2     
  41 C41          -13.4409   -12.4727    -0.6488 C.3     
  42 C42            3.6871     8.4832    -2.8742 C.3     
  43 N43            4.9963     9.0719    -3.1668 N.am    
  44 C44            5.2025     9.7088    -4.3365 C.2     
  45 O45            6.4057    10.2498    -4.6054 O.3     
  46 O46            4.3025     9.7948    -5.1484 O.2     
  47 C47            6.5559    10.9206    -5.8844 C.3     
  48 C48          -14.8029   -12.7186    -1.3011 C.3     
  49 C49            7.9794    11.4672    -6.0097 C.3     
  50 H50           -1.8401    -0.5802    -0.8983 H       
  51 H51           -1.0805    -1.8405     0.1031 H       
  52 H52           -4.5110     0.3916     2.3505 H       
  53 H53           -3.7514    -0.8687     3.3520 H       
  54 H54           -9.7376    -2.2157     1.4779 H       
  55 H55           -3.2404    -2.1820     1.3116 H       
  56 H56           -4.0000    -0.9216     0.3102 H       
  57 H57           -1.5915    -0.5273     2.1434 H       
  58 H58           -2.3511     0.7331     1.1420 H       
  59 H59            1.2451    -1.7603    -0.0176 H       
  60 H60            3.3472    -0.4082    -0.0369 H       
  61 H61            4.2821     1.8485     0.0427 H       
  62 H62            4.9880     4.3107     0.9643 H       
  63 H63            5.2148     4.2073    -0.7981 H       
  64 H64            3.8032     6.1829     1.9566 H       
  65 H65            3.1510     8.5471     1.7339 H       
  66 H66            3.0972     9.6053    -0.4886 H       
  67 H67            4.3531     5.9372    -2.2656 H       
  68 H68          -11.7206    -3.5852     2.6839 H       
  69 H69          -11.2174    -4.4524     1.2132 H       
  70 H70          -11.9447    -4.7541     4.7998 H       
  71 H71          -12.3798    -6.9042     5.9187 H       
  72 H72          -11.9950    -9.0179     4.7159 H       
  73 H73          -10.7452    -6.8319     1.2737 H       
  74 H74          -10.3061    -9.2129     1.4607 H       
  75 H75          -10.8291   -10.1253     2.8968 H       
  76 H76          -13.1289    -9.1898     1.5505 H       
  77 H77          -12.6771   -12.3915    -1.4222 H       
  78 H78          -13.2001   -13.3039     0.0139 H       
  79 H79            3.4494     7.7327    -3.6281 H       
  80 H80            2.9267     9.2640    -2.8864 H       
  81 H81            5.7147     9.0032    -2.5187 H       
  82 H82            6.3665    10.2120    -6.6908 H       
  83 H83            5.8438    11.7433    -5.9491 H       
  84 H84          -15.5667   -12.7998    -0.5277 H       
  85 H85          -15.0438   -11.8875    -1.9638 H       
  86 H86          -14.7685   -13.6438    -1.8763 H       
  87 H87            8.1687    12.1758    -5.2033 H       
  88 H88            8.6915    10.6445    -5.9450 H       
  89 H89            8.0921    11.9707    -6.9698 H       
@<TRIPOS>BOND
   1    1    2 ar
   2    1   16 ar
   3    2    3 1
   4    2   13 ar
   5    3   12 1
   6    3   50 1
   7    3   51 1
   8    4    5 1
   9    4   11 1
  10    4   52 1
  11    4   53 1
  12    5    6 2
  13    5    9 1
  14    6    7 1
  15    7    8 2
  16    8    9 1
  17    8   10 1
  18   10   27 am
  19   10   54 1
  20   11   12 1
  21   11   55 1
  22   11   56 1
  23   12   57 1
  24   12   58 1
  25   13   14 ar
  26   13   59 1
  27   14   15 ar
  28   14   60 1
  29   15   16 ar
  30   15   17 1
  31   17   18 am
  32   17   61 1
  33   18   19 2
  34   18   20 1
  35   20   21 1
  36   20   62 1
  37   20   63 1
  38   21   22 ar
  39   21   26 ar
  40   22   23 ar
  41   22   64 1
  42   23   24 ar
  43   23   65 1
  44   24   25 ar
  45   24   66 1
  46   25   26 ar
  47   25   42 1
  48   26   67 1
  49   27   28 2
  50   27   29 1
  51   29   30 1
  52   29   68 1
  53   29   69 1
  54   30   31 ar
  55   30   35 ar
  56   31   32 ar
  57   31   70 1
  58   32   33 ar
  59   32   71 1
  60   33   34 ar
  61   33   72 1
  62   34   35 ar
  63   34   36 1
  64   35   73 1
  65   36   37 1
  66   36   74 1
  67   36   75 1
  68   37   38 am
  69   37   76 1
  70   38   39 1
  71   38   40 2
  72   39   41 1
  73   41   48 1
  74   41   77 1
  75   41   78 1
  76   42   43 1
  77   42   79 1
  78   42   80 1
  79   43   44 am
  80   43   81 1
  81   44   45 1
  82   44   46 2
  83   45   47 1
  84   47   49 1
  85   47   82 1
  86   47   83 1
  87   48   84 1
  88   48   85 1
  89   48   86 1
  90   49   87 1
  91   49   88 1
  92   49   89 1

#	End of record

