#	Name: ASD00100164
#	Creating user name:	WinNT
#	Creation time:	15. 06. 2019 18:30

#	Modifying user name:	WinNT
#	Modification time:	15. 06. 2019 18:30

#	Program:	/corina/corina34_cracker 3.40 0067  02.08.2006

@<TRIPOS>MOLECULE
ASD00100164
  37   39    0    0    0
SMALL
NO_CHARGES


@<TRIPOS>ATOM
   1 N1            -0.1262     1.5370     0.3558 N.pl3   
   2 C2            -0.0184     0.1684     0.1770 C.2     
   3 N3             1.1016    -0.4969     0.0328 N.2     
   4 C4             0.8191    -1.8153    -0.1178 C.2     
   5 C5            -0.5279    -1.9618    -0.0634 C.2     
   6 N6            -1.0578    -0.7089     0.1280 N.pl3   
   7 C7             1.3868    -4.2090    -0.5562 C.ar    
   8 C8             1.8086    -2.9038    -0.3087 C.ar    
   9 C9             3.1790    -2.6372    -0.2438 C.ar    
  10 C10            4.0617    -3.6876    -0.4293 C.ar    
  11 C11            3.5639    -4.9549    -0.6706 C.ar    
  12 N12            2.2646    -5.1762    -0.7263 N.ar    
  13 C13           -2.4794    -0.3778     0.2531 C.3     
  14 C14           -3.0241     0.0156    -1.0958 C.ar    
  15 C15           -3.4566    -0.9609    -1.9816 C.ar    
  16 C16           -3.9574    -0.5955    -3.2225 C.ar    
  17 C17           -4.0244     0.7391    -3.5735 C.ar    
  18 C18           -3.5924     1.7101    -2.6893 C.ar    
  19 C19           -3.0984     1.3488    -1.4492 C.ar    
  20 O20           -3.3893    -2.2730    -1.6343 O.3     
  21 C21           -3.8522    -3.2233    -2.5959 C.3     
  22 H22            0.6736     2.0803     0.4340 H       
  23 H23           -1.0013     1.9531     0.3988 H       
  24 H24           -1.0785    -2.8868    -0.1506 H       
  25 H25            0.3308    -4.4301    -0.6045 H       
  26 H26            3.5403    -1.6373    -0.0542 H       
  27 H27            5.1275    -3.5189    -0.3864 H       
  28 H28            4.2497    -5.7765    -0.8161 H       
  29 H29           -3.0232    -1.2459     0.6255 H       
  30 H30           -2.5992     0.4522     0.9494 H       
  31 H31           -4.2944    -1.3538    -3.9139 H       
  32 H32           -4.4143     1.0241    -4.5395 H       
  33 H33           -3.6449     2.7528    -2.9658 H       
  34 H34           -2.7660     2.1094    -0.7583 H       
  35 H35           -3.7431    -4.2303    -2.1932 H       
  36 H36           -4.9021    -3.0328    -2.8186 H       
  37 H37           -3.2645    -3.1316    -3.5093 H       
@<TRIPOS>BOND
   1    1    2 1
   2    1   22 1
   3    1   23 1
   4    2    3 2
   5    2    6 1
   6    3    4 1
   7    4    5 2
   8    4    8 1
   9    5    6 1
  10    5   24 1
  11    6   13 1
  12    7    8 ar
  13    7   12 ar
  14    7   25 1
  15    8    9 ar
  16    9   10 ar
  17    9   26 1
  18   10   11 ar
  19   10   27 1
  20   11   12 ar
  21   11   28 1
  22   13   14 1
  23   13   29 1
  24   13   30 1
  25   14   15 ar
  26   14   19 ar
  27   15   16 ar
  28   15   20 1
  29   16   17 ar
  30   16   31 1
  31   17   18 ar
  32   17   32 1
  33   18   19 ar
  34   18   33 1
  35   19   34 1
  36   20   21 1
  37   21   35 1
  38   21   36 1
  39   21   37 1

#	End of record

