#	Name: ASD01410915
#	Creating user name:	WinNT
#	Creation time:	15. 06. 2019 19:18

#	Modifying user name:	WinNT
#	Modification time:	15. 06. 2019 19:18

#	Program:	/corina/corina34_cracker 3.40 0067  02.08.2006

@<TRIPOS>MOLECULE
ASD01410915
  66   68    0    0    0
SMALL
NO_CHARGES


@<TRIPOS>ATOM
   1 S1             1.4925     1.8824    -1.0645 S.3     
   2 C2             2.4224     0.3904    -1.0455 C.2     
   3 C3             1.7015    -0.5957    -0.4133 C.2     
   4 C4             0.4671    -0.1958     0.0387 C.2     
   5 C5             0.1619     1.1103    -0.2140 C.2     
   6 C6            -1.0607     1.7560     0.1588 C.1     
   7 C7            -2.0630     2.2853     0.4644 C.1     
   8 C8            -3.3198     2.9491     0.8476 C.3     
   9 C9            -4.2252     1.9490     1.5695 C.3     
  10 C10           -3.0129     4.1236     1.7788 C.3     
  11 C11            3.7144     0.2287    -1.5967 C.2     
  12 N12            2.1833    -1.8946    -0.2455 N.am    
  13 O13            4.2929     1.2455    -2.2705 O.3     
  14 O14            4.3051    -0.8273    -1.4635 O.2     
  15 C15            3.0501    -2.2132     0.8918 C.3     
  16 C16            1.8513    -2.8560    -1.1298 C.2     
  17 C17            2.2943    -4.2778    -0.8988 C.3     
  18 O18            1.1961    -2.5769    -2.1115 O.2     
  19 C19            2.2019    -2.5329     2.0957 C.2     
  20 C20            2.3407    -5.0211    -2.2354 C.3     
  21 C21            2.7905    -6.4645    -2.0009 C.3     
  22 C22            1.8014    -7.1610    -1.0641 C.3     
  23 C23            1.7550    -6.4178     0.2725 C.3     
  24 C24            1.3053    -4.9743     0.0379 C.3     
  25 C25            2.2511    -8.6045    -0.8296 C.3     
  26 N26            2.7809    -2.9733     3.2303 N.am    
  27 O27            0.9982    -2.3939     2.0436 O.2     
  28 C28            2.0763    -3.3205     4.4730 C.3     
  29 C29           -4.0276     3.4644    -0.4071 C.3     
  30 C30            3.1447    -3.7468     5.5018 C.3     
  31 C31            4.2252    -3.1926     3.4287 C.3     
  32 C32            4.4349    -3.0755     4.9612 C.3     
  33 H33           -0.2087    -0.8628     0.5533 H       
  34 H34           -3.7209     1.5818     2.4634 H       
  35 H35           -5.1558     2.4405     1.8533 H       
  36 H36           -4.4438     1.1122     0.9061 H       
  37 H37           -2.3679     4.8361     1.2646 H       
  38 H38           -3.9435     4.6151     2.0626 H       
  39 H39           -2.5087     3.7565     2.6727 H       
  40 H40            5.1750     1.0409    -2.6098 H       
  41 H41            3.6707    -3.0747     0.6455 H       
  42 H42            3.6878    -1.3575     1.1135 H       
  43 H43            3.2862    -4.2805    -0.4470 H       
  44 H44            1.3488    -5.0184    -2.6872 H       
  45 H45            3.0453    -4.5248    -2.9028 H       
  46 H46            2.8235    -6.9940    -2.9530 H       
  47 H47            3.7824    -6.4672    -1.5490 H       
  48 H48            0.8095    -7.1584    -1.5159 H       
  49 H49            1.0504    -6.9140     0.9398 H       
  50 H50            2.7469    -6.4205     0.7243 H       
  51 H51            1.2722    -4.4448     0.9901 H       
  52 H52            0.3133    -4.9717    -0.4139 H       
  53 H53            3.2431    -8.6072    -0.3777 H       
  54 H54            1.5465    -9.1007    -0.1622 H       
  55 H55            2.2842    -9.1340    -1.7817 H       
  56 H56            1.5296    -2.4535     4.8439 H       
  57 H57            1.3875    -4.1453     4.2905 H       
  58 H58           -4.2462     2.6276    -1.0705 H       
  59 H59           -4.9582     3.9559    -0.1233 H       
  60 H60           -3.3826     4.1769    -0.9214 H       
  61 H61            2.8986    -3.3667     6.4933 H       
  62 H62            3.2524    -4.8313     5.5191 H       
  63 H63            4.5097    -4.1852     3.0792 H       
  64 H64            4.8003    -2.4270     2.9079 H       
  65 H65            4.4925    -2.0325     5.2725 H       
  66 H66            5.3223    -3.6250     5.2755 H       
@<TRIPOS>BOND
   1    1    2 1
   2    1    5 1
   3    2    3 2
   4    2   11 1
   5    3    4 1
   6    3   12 1
   7    4    5 2
   8    4   33 1
   9    5    6 1
  10    6    7 3
  11    7    8 1
  12    8    9 1
  13    8   10 1
  14    8   29 1
  15    9   34 1
  16    9   35 1
  17    9   36 1
  18   10   37 1
  19   10   38 1
  20   10   39 1
  21   11   13 1
  22   11   14 2
  23   12   15 1
  24   12   16 am
  25   13   40 1
  26   15   19 1
  27   15   41 1
  28   15   42 1
  29   16   18 2
  30   16   17 1
  31   17   20 1
  32   17   24 1
  33   17   43 1
  34   19   26 am
  35   19   27 2
  36   20   21 1
  37   20   44 1
  38   20   45 1
  39   21   22 1
  40   21   46 1
  41   21   47 1
  42   22   23 1
  43   22   25 1
  44   22   48 1
  45   23   24 1
  46   23   49 1
  47   23   50 1
  48   24   51 1
  49   24   52 1
  50   25   53 1
  51   25   54 1
  52   25   55 1
  53   26   28 1
  54   26   31 1
  55   28   30 1
  56   28   56 1
  57   28   57 1
  58   29   58 1
  59   29   59 1
  60   29   60 1
  61   30   32 1
  62   30   61 1
  63   30   62 1
  64   31   32 1
  65   31   63 1
  66   31   64 1
  67   32   65 1
  68   32   66 1

#	End of record

