#	Name: ASD01840123
#	Creating user name:	WinNT
#	Creation time:	15. 06. 2019 19:37

#	Modifying user name:	WinNT
#	Modification time:	15. 06. 2019 19:37

#	Program:	/corina/corina34_cracker 3.40 0067  02.08.2006

@<TRIPOS>MOLECULE
ASD01840123
  49   52    0    0    0
SMALL
NO_CHARGES


@<TRIPOS>ATOM
   1 C1             0.2611     1.7552    -0.9983 C.ar    
   2 C2             0.3842     0.5320    -1.6199 C.ar    
   3 N3             1.4991    -0.1677    -1.4969 N.ar    
   4 N4             2.5000     0.2427    -0.8113 N.ar    
   5 C5             1.3546     2.2266    -0.2366 C.ar    
   6 C6             1.5105     3.4571     0.5167 C.2     
   7 C7             2.4928     1.4121    -0.1671 C.ar    
   8 S8             3.7245     2.1819     0.8231 S.3     
   9 C9             2.7119     3.5785     1.1338 C.2     
  10 C10           -0.7560    -0.0105    -2.4424 C.3     
  11 C11           -0.9999     2.5696    -1.1316 C.3     
  12 C12            3.1106     4.7241     1.9502 C.2     
  13 O13            2.3410     5.6535     2.1122 O.2     
  14 N14            4.3301     4.7513     2.5234 N.am    
  15 C15            4.7295     5.8992     3.3414 C.3     
  16 C16            6.1273     5.6832     3.8617 C.ar    
  17 C17            6.3207     5.0403     5.0711 C.ar    
  18 C18            7.2123     6.1235     3.1254 C.ar    
  19 C19            8.4946     5.9279     3.5969 C.ar    
  20 C20            8.6950     5.2859     4.8172 C.ar    
  21 C21            7.5986     4.8398     5.5523 C.ar    
  22 N22            0.5180     4.4245     0.5980 N.pl3   
  23 C23           10.0715     5.0723     5.3291 C.ar    
  24 C24           10.2916     4.4307     6.5504 C.ar    
  25 N25           11.5339     4.2605     6.9690 N.ar    
  26 C26           12.5552     4.6860     6.2522 C.ar    
  27 N27           12.3915     5.2963     5.0951 N.ar    
  28 C28           11.1831     5.5021     4.6001 C.ar    
  29 C29           13.9530     4.4686     6.7717 C.3     
  30 H30           -0.6491     0.3211    -3.4752 H       
  31 H31           -0.7431    -1.0999    -2.4074 H       
  32 H32           -1.7007     0.3547    -2.0395 H       
  33 H33           -1.6441     2.3851    -0.2720 H       
  34 H34           -0.7455     3.6287    -1.1744 H       
  35 H35           -1.5219     2.2841    -2.0449 H       
  36 H36            4.9433     4.0109     2.3944 H       
  37 H37            4.7035     6.8043     2.7347 H       
  38 H38            4.0417     6.0043     4.1805 H       
  39 H39            5.4701     4.6949     5.6400 H       
  40 H40            7.0558     6.6209     2.1796 H       
  41 H41            9.3411     6.2714     3.0209 H       
  42 H42            7.7485     4.3374     6.4965 H       
  43 H43           -0.4028     4.1924     0.3999 H       
  44 H44            0.7453     5.3324     0.8529 H       
  45 H45            9.4600     4.0797     7.1433 H       
  46 H46           11.0570     5.9986     3.6493 H       
  47 H47           14.3286     3.5100     6.4139 H       
  48 H48           14.6016     5.2689     6.4153 H       
  49 H49           13.9398     4.4698     7.8616 H       
@<TRIPOS>BOND
   1    1    2 ar
   2    1    5 ar
   3    1   11 1
   4    2    3 ar
   5    2   10 1
   6    3    4 ar
   7    4    7 ar
   8    5    7 ar
   9    5    6 1
  10    6    9 2
  11    6   22 1
  12    7    8 1
  13    8    9 1
  14    9   12 1
  15   10   30 1
  16   10   31 1
  17   10   32 1
  18   11   33 1
  19   11   34 1
  20   11   35 1
  21   12   13 2
  22   12   14 am
  23   14   15 1
  24   14   36 1
  25   15   16 1
  26   15   37 1
  27   15   38 1
  28   16   18 ar
  29   16   17 ar
  30   17   21 ar
  31   17   39 1
  32   18   19 ar
  33   18   40 1
  34   19   20 ar
  35   19   41 1
  36   20   21 ar
  37   20   23 1
  38   21   42 1
  39   22   43 1
  40   22   44 1
  41   23   24 ar
  42   23   28 ar
  43   24   25 ar
  44   24   45 1
  45   25   26 ar
  46   26   27 ar
  47   26   29 1
  48   27   28 ar
  49   28   46 1
  50   29   47 1
  51   29   48 1
  52   29   49 1

#	End of record

