#	Name: ASD00080001
#	Creating user name:	WinNT
#	Creation time:	15. 06. 2019 18:30

#	Modifying user name:	WinNT
#	Modification time:	15. 06. 2019 18:30

#	Program:	/corina/corina34_cracker 3.40 0067  02.08.2006

@<TRIPOS>MOLECULE
ASD00080001
  62   61    0    0    0
SMALL
NO_CHARGES


@<TRIPOS>ATOM
   1 C1             0.0263     1.5102     0.1493 C.2     
   2 N2             1.0899    -0.5219    -0.6534 N.3     
   3 C3            -0.1137     0.0178    -0.0070 C.3     
   4 C4            -0.2847    -0.6254     1.3707 C.3     
   5 C5            -0.5520    -2.1227     1.2049 C.3     
   6 C6            -0.5903    -2.7894     2.5814 C.3     
   7 C7            -1.8958    -2.3261     0.5021 C.3     
   8 O8             1.1243     2.0236     0.1098 O.2     
   9 N9            -1.0692     2.2748     0.3272 N.am    
  10 C10           -0.9331     3.7255     0.4791 C.3     
  11 C11           -2.2140     4.3973     0.0558 C.2     
  12 N12           -2.3210     5.7397     0.1108 N.am    
  13 O13           -3.1485     3.7299    -0.3343 O.2     
  14 C14           -3.5662     6.3927    -0.3007 C.3     
  15 C15           -3.6859     7.7267     0.3901 C.2     
  16 N16           -4.7588     8.5097     0.1622 N.am    
  17 O17           -2.8166     8.0956     1.1512 O.2     
  18 C18           -4.8752     9.8066     0.8337 C.3     
  19 C19           -4.1269    10.8498     0.0446 C.2     
  20 O20           -4.0957    12.1213     0.4735 O.3     
  21 O21           -3.5551    10.5417    -0.9743 O.2     
  22 C22           -6.3505    10.2006     0.9297 C.3     
  23 C23           -7.0853     9.2091     1.8341 C.3     
  24 C24           -6.5429     9.3209     3.2603 C.3     
  25 C25           -8.5816     9.5284     1.8311 C.3     
  26 C26           -3.5555     6.6023    -1.8162 C.3     
  27 C27           -0.6416     4.0599     1.9434 C.3     
  28 O28           -1.7666     3.6995     2.7474 O.3     
  29 H29            1.9206    -0.2690    -0.1395 H       
  30 H30            1.0234    -1.5227    -0.7633 H       
  31 H31           -0.9863    -0.2029    -0.6218 H       
  32 H32            0.6244    -0.4810     1.9544 H       
  33 H33           -1.1253    -0.1612     1.8866 H       
  34 H34            0.2422    -2.5695     0.6067 H       
  35 H35           -0.6928    -3.8678     2.4601 H       
  36 H36            0.3334    -2.5703     3.1171 H       
  37 H37           -1.4386    -2.4052     3.1478 H       
  38 H38           -1.8685    -1.8511    -0.4785 H       
  39 H39           -2.0862    -3.3928     0.3840 H       
  40 H40           -2.6899    -1.8793     1.1003 H       
  41 H41           -1.9478     1.8646     0.3548 H       
  42 H42           -0.1131     4.0808    -0.1449 H       
  43 H43           -1.5736     6.2734     0.4228 H       
  44 H44           -4.4137     5.7644    -0.0268 H       
  45 H45           -5.4540     8.2147    -0.4466 H       
  46 H46           -4.4520     9.7361     1.8357 H       
  47 H47           -3.6031    12.7547    -0.0661 H       
  48 H48           -6.4321    11.2037     1.3484 H       
  49 H49           -6.7963    10.1846    -0.0648 H       
  50 H50           -6.9294     8.1957     1.4644 H       
  51 H51           -7.0664     8.6145     3.9045 H       
  52 H52           -5.4769     9.0934     3.2624 H       
  53 H53           -6.6988    10.3344     3.6300 H       
  54 H54           -8.9681     9.4488     0.8150 H       
  55 H55           -9.1052     8.8221     2.4753 H       
  56 H56           -8.7376    10.5419     2.2007 H       
  57 H57           -3.4689     5.6374    -2.3158 H       
  58 H58           -4.4819     7.0882    -2.1223 H       
  59 H59           -2.7080     7.2306    -2.0901 H       
  60 H60            0.2353     3.5040     2.2754 H       
  61 H61           -0.4526     5.1289     2.0413 H       
  62 H62           -1.6519     3.8839     3.6897 H       
@<TRIPOS>BOND
   1    1    3 1
   2    1    8 2
   3    1    9 am
   4    2    3 1
   5    2   29 1
   6    2   30 1
   7    3    4 1
   8    3   31 1
   9    4    5 1
  10    4   32 1
  11    4   33 1
  12    5    6 1
  13    5    7 1
  14    5   34 1
  15    6   35 1
  16    6   36 1
  17    6   37 1
  18    7   38 1
  19    7   39 1
  20    7   40 1
  21    9   10 1
  22    9   41 1
  23   10   11 1
  24   10   27 1
  25   10   42 1
  26   11   12 am
  27   11   13 2
  28   12   14 1
  29   12   43 1
  30   14   15 1
  31   14   26 1
  32   14   44 1
  33   15   16 am
  34   15   17 2
  35   16   18 1
  36   16   45 1
  37   18   19 1
  38   18   22 1
  39   18   46 1
  40   19   20 1
  41   19   21 2
  42   20   47 1
  43   22   23 1
  44   22   48 1
  45   22   49 1
  46   23   24 1
  47   23   25 1
  48   23   50 1
  49   24   51 1
  50   24   52 1
  51   24   53 1
  52   25   54 1
  53   25   55 1
  54   25   56 1
  55   26   57 1
  56   26   58 1
  57   26   59 1
  58   27   28 1
  59   27   60 1
  60   27   61 1
  61   28   62 1

#	End of record

