#	Name: ASD01820205
#	Creating user name:	WinNT
#	Creation time:	15. 06. 2019 19:36

#	Modifying user name:	WinNT
#	Modification time:	15. 06. 2019 19:36

#	Program:	/corina/corina34_cracker 3.40 0067  02.08.2006

@<TRIPOS>MOLECULE
ASD01820205
  86   90    0    0    0
SMALL
NO_CHARGES


@<TRIPOS>ATOM
   1 C1             0.2111     0.8091    -1.2343 C.ar    
   2 C2             0.4331    -0.5142    -0.8599 C.ar    
   3 C3             1.6610    -1.0864    -1.0046 C.ar    
   4 C4             2.7182    -0.3359    -1.5379 C.ar    
   5 C5             2.4942     1.0094    -1.9196 C.ar    
   6 C6             1.2145     1.5672    -1.7555 C.ar    
   7 C7             4.0077    -0.8969    -1.7024 C.ar    
   8 C8             5.0222    -0.1186    -2.2328 C.ar    
   9 C9             4.7851     1.2006    -2.6019 C.ar    
  10 C10            3.5536     1.7634    -2.4536 C.ar    
  11 C11            5.0840    -2.5787    -0.2124 C.ar    
  12 C12            5.3268    -3.8839     0.1513 C.ar    
  13 C13            4.7576    -4.9294    -0.5782 C.ar    
  14 C14            3.9417    -4.6510    -1.6764 C.ar    
  15 C15            3.6992    -3.3458    -2.0405 C.ar    
  16 C16            4.2685    -2.3003    -1.3109 C.ar    
  17 C17            4.5039    -6.8382     0.9934 C.ar    
  18 C18            4.7451    -8.1554     1.3665 C.ar    
  19 C19            5.4970    -8.9821     0.5875 C.ar    
  20 C20            6.0447    -8.5091    -0.6176 C.ar    
  21 C21            5.8084    -7.1699    -1.0132 C.ar    
  22 C22            5.0195    -6.3328    -0.1877 C.ar    
  23 C23            6.8243    -9.3417    -1.4389 C.ar    
  24 C24            7.3400    -8.8513    -2.5994 C.ar    
  25 C25            7.1065    -7.5338    -2.9869 C.ar    
  26 C26            6.3559    -6.6992    -2.2149 C.ar    
  27 C27            6.3979    -0.7072    -2.4115 C.3     
  28 C28            6.4688    -1.4402    -3.7527 C.3     
  29 C29            7.8277    -2.1305    -3.8855 C.3     
  30 N30            7.8564    -2.9212    -5.1232 N.3     
  31 C31            3.6673    -5.9530     1.8809 C.3     
  32 C32            2.2175    -5.9651     1.3922 C.3     
  33 C33            1.3464    -5.1613     2.3597 C.3     
  34 N34           -0.0614    -5.2655     1.9532 N.3     
  35 C35           -0.9414    -4.6121     2.9312 C.3     
  36 C36            9.1160    -3.6677    -5.2419 C.3     
  37 O37           -2.8172    -6.0225     2.3545 O.3     
  38 C38           -4.1609    -6.1818     1.8950 C.3     
  39 O39            9.1853    -3.3910    -7.6417 O.3     
  40 C40            9.2328    -3.9443    -8.9585 C.3     
  41 C41           -2.3863    -4.6621     2.4305 C.3     
  42 C42            9.1668    -4.3695    -6.6005 C.3     
  43 H43           -0.7725     1.2384    -1.1134 H       
  44 H44           -0.3796    -1.0946    -0.4488 H       
  45 H45            1.8192    -2.1132    -0.7095 H       
  46 H46            1.0281     2.5916    -2.0422 H       
  47 H47            5.5915     1.7895    -3.0134 H       
  48 H48            3.3908     2.7900    -2.7467 H       
  49 H49            5.5207    -1.7699     0.3546 H       
  50 H50            5.9580    -4.0992     1.0008 H       
  51 H51            3.5019    -5.4597    -2.2412 H       
  52 H52            3.0686    -3.1305    -2.8904 H       
  53 H53            4.3295    -8.5298     2.2903 H       
  54 H54            5.6728   -10.0020     0.8963 H       
  55 H55            7.0137   -10.3652    -1.1506 H       
  56 H56            7.9390    -9.4928    -3.2287 H       
  57 H57            7.5268    -7.1687    -3.9124 H       
  58 H58            6.1828    -5.6800    -2.5275 H       
  59 H59            7.1398     0.0912    -2.3942 H       
  60 H60            6.6006    -1.4092    -1.6027 H       
  61 H61            5.6758    -2.1864    -3.8012 H       
  62 H62            6.3441    -0.7242    -4.5651 H       
  63 H63            8.6159    -1.3783    -3.9165 H       
  64 H64            7.9863    -2.7879    -3.0306 H       
  65 H65            7.0622    -3.5416    -5.1744 H       
  66 H66            3.7084    -6.3228     2.9055 H       
  67 H67            4.0539    -4.9345     1.8465 H       
  68 H68            2.1650    -5.5184     0.3993 H       
  69 H69            1.8576    -6.9930     1.3476 H       
  70 H70            1.4636    -5.5570     3.3685 H       
  71 H71            1.6533    -4.1155     2.3418 H       
  72 H72           -0.2003    -4.8834     1.0298 H       
  73 H73           -0.8701    -5.1304     3.8874 H       
  74 H74           -0.6364    -3.5732     3.0574 H       
  75 H75            9.9562    -2.9784    -5.1574 H       
  76 H76            9.1743    -4.4108    -4.4466 H       
  77 H77           -4.4115    -7.2422     1.8654 H       
  78 H78           -4.8405    -5.6666     2.5738 H       
  79 H79           -4.2556    -5.7580     0.8952 H       
  80 H80           10.1347    -4.5466    -9.0671 H       
  81 H81            8.3557    -4.5706    -9.1212 H       
  82 H82            9.2442    -3.1375    -9.6913 H       
  83 H83           -3.0291    -4.1154     3.1205 H       
  84 H84           -2.4442    -4.2069     1.4418 H       
  85 H85           10.0673    -4.9808    -6.6603 H       
  86 H86            8.2883    -5.0047    -6.7144 H       
@<TRIPOS>BOND
   1    1    2 ar
   2    1    6 ar
   3    1   43 1
   4    2    3 ar
   5    2   44 1
   6    3    4 ar
   7    3   45 1
   8    4    5 ar
   9    4    7 ar
  10    5    6 ar
  11    5   10 ar
  12    6   46 1
  13    7    8 ar
  14    7   16 1
  15    8    9 ar
  16    8   27 1
  17    9   10 ar
  18    9   47 1
  19   10   48 1
  20   11   12 ar
  21   11   16 ar
  22   11   49 1
  23   12   13 ar
  24   12   50 1
  25   13   14 ar
  26   13   22 1
  27   14   15 ar
  28   14   51 1
  29   15   16 ar
  30   15   52 1
  31   17   18 ar
  32   17   31 1
  33   17   22 ar
  34   18   19 ar
  35   18   53 1
  36   19   20 ar
  37   19   54 1
  38   20   21 ar
  39   20   23 ar
  40   21   22 ar
  41   21   26 ar
  42   23   24 ar
  43   23   55 1
  44   24   25 ar
  45   24   56 1
  46   25   26 ar
  47   25   57 1
  48   26   58 1
  49   27   28 1
  50   27   59 1
  51   27   60 1
  52   28   29 1
  53   28   61 1
  54   28   62 1
  55   29   30 1
  56   29   63 1
  57   29   64 1
  58   30   36 1
  59   30   65 1
  60   31   32 1
  61   31   66 1
  62   31   67 1
  63   32   33 1
  64   32   68 1
  65   32   69 1
  66   33   34 1
  67   33   70 1
  68   33   71 1
  69   34   35 1
  70   34   72 1
  71   35   41 1
  72   35   73 1
  73   35   74 1
  74   36   42 1
  75   36   75 1
  76   36   76 1
  77   37   38 1
  78   37   41 1
  79   38   77 1
  80   38   78 1
  81   38   79 1
  82   39   40 1
  83   39   42 1
  84   40   80 1
  85   40   81 1
  86   40   82 1
  87   41   83 1
  88   41   84 1
  89   42   85 1
  90   42   86 1

#	End of record

