#	Name: ASD03090339
#	Creating user name:	WinNT
#	Creation time:	15. 06. 2019 20:28

#	Modifying user name:	WinNT
#	Modification time:	15. 06. 2019 20:28

#	Program:	/corina/corina34_cracker 3.40 0067  02.08.2006

@<TRIPOS>MOLECULE
ASD03090339
  52   55    0    0    0
SMALL
NO_CHARGES


@<TRIPOS>ATOM
   1 C1            -0.2703     0.9489    -0.8485 C.ar    
   2 C2            -0.1356    -0.1867    -0.0601 C.ar    
   3 C3             1.1011    -0.7712     0.1105 C.ar    
   4 C4             2.2236    -0.2217    -0.5104 C.ar    
   5 C5             2.0897     0.9196    -1.3015 C.ar    
   6 C6             0.8457     1.5033    -1.4679 C.ar    
   7 C7             3.5515    -0.8471    -0.3300 C.2     
   8 N8             7.0660    -0.8692    -0.4212 N.pl3   
   9 C9             7.4934     0.3401    -0.9756 C.ar    
  10 C10            8.6880     0.9132    -0.5584 C.ar    
  11 C11            9.1088     2.1088    -1.1077 C.ar    
  12 C12            8.3425     2.7364    -2.0720 C.ar    
  13 C13            7.1504     2.1684    -2.4911 C.ar    
  14 C14            6.7273     0.9685    -1.9491 C.ar    
  15 N15            4.7164    -0.2751    -0.5624 N.2     
  16 C16            5.7012    -1.1335    -0.2902 C.2     
  17 N17            5.1804    -2.2667     0.1201 N.2     
  18 N18            3.7856    -2.1047     0.1081 N.pl3   
  19 C19            2.7827    -3.1030     0.4876 C.3     
  20 C20            2.5456    -3.0391     1.9977 C.3     
  21 C21            1.5140    -4.0659     2.3881 C.2     
  22 N22            1.1432    -4.1922     3.6777 N.am    
  23 C23            0.1404    -5.1905     4.0572 C.3     
  24 O24            1.0173    -4.7787     1.5418 O.2     
  25 C25            1.7431    -3.3313     4.7000 C.3     
  26 O26            0.7322     2.6211    -2.2367 O.3     
  27 C27           -0.5838     2.9630    -2.6850 C.3     
  28 C28           -1.5419     2.8525    -1.4913 C.3     
  29 O29           -1.5022     1.5043    -1.0095 O.3     
  30 F30            6.4037     2.7842    -3.4337 F       
  31 H31           -1.0032    -0.6132     0.4213 H       
  32 H32            1.2014    -1.6538     0.7248 H       
  33 H33            2.9562     1.3477    -1.7835 H       
  34 H34            7.7174    -1.5251    -0.1273 H       
  35 H35            9.2874     0.4245     0.1954 H       
  36 H36           10.0376     2.5540    -0.7830 H       
  37 H37            8.6737     3.6714    -2.4992 H       
  38 H38            5.7981     0.5254    -2.2756 H       
  39 H39            1.8491    -2.8972    -0.0359 H       
  40 H40            3.1392    -4.0970     0.2175 H       
  41 H41            3.4792    -3.2449     2.5212 H       
  42 H42            2.1891    -2.0451     2.2678 H       
  43 H43            0.6365    -6.1308     4.2976 H       
  44 H44           -0.4117    -4.8379     4.9284 H       
  45 H45           -0.5498    -5.3455     3.2279 H       
  46 H46            2.4613    -2.6579     4.2321 H       
  47 H47            0.9622    -2.7478     5.1875 H       
  48 H48            2.2523    -3.9476     5.4409 H       
  49 H49           -0.5883     3.9840    -3.0667 H       
  50 H50           -0.8948     2.2748    -3.4709 H       
  51 H51           -1.2270     3.5358    -0.7027 H       
  52 H52           -2.5550     3.0989    -1.8091 H       
@<TRIPOS>BOND
   1    1    2 ar
   2    1    6 ar
   3    1   29 1
   4    2    3 ar
   5    2   31 1
   6    3    4 ar
   7    3   32 1
   8    4    5 ar
   9    4    7 1
  10    5    6 ar
  11    5   33 1
  12    6   26 1
  13    7   15 2
  14    7   18 1
  15    8    9 1
  16    8   16 1
  17    8   34 1
  18    9   10 ar
  19    9   14 ar
  20   10   11 ar
  21   10   35 1
  22   11   12 ar
  23   11   36 1
  24   12   13 ar
  25   12   37 1
  26   13   14 ar
  27   13   30 1
  28   14   38 1
  29   15   16 1
  30   16   17 2
  31   17   18 1
  32   18   19 1
  33   19   20 1
  34   19   39 1
  35   19   40 1
  36   20   21 1
  37   20   41 1
  38   20   42 1
  39   21   22 am
  40   21   24 2
  41   22   23 1
  42   22   25 1
  43   23   43 1
  44   23   44 1
  45   23   45 1
  46   25   46 1
  47   25   47 1
  48   25   48 1
  49   26   27 1
  50   27   28 1
  51   27   49 1
  52   27   50 1
  53   28   29 1
  54   28   51 1
  55   28   52 1

#	End of record

