#	Name: ASD01908198
#	Creating user name:	WinNT
#	Creation time:	15. 06. 2019 19:54

#	Modifying user name:	WinNT
#	Modification time:	15. 06. 2019 19:54

#	Program:	/corina/corina34_cracker 3.40 0067  02.08.2006

@<TRIPOS>MOLECULE
ASD01908198
  36   38    0    0    0
SMALL
NO_CHARGES


@<TRIPOS>ATOM
   1 C1             0.8979     2.9408     0.7711 C.ar    
   2 C2             1.9417     3.2936     1.6239 C.ar    
   3 C3             3.1244     2.5732     1.5740 C.ar    
   4 C4             3.2224     1.5245     0.6725 C.ar    
   5 C5             2.1440     1.2292    -0.1458 C.ar    
   6 N6             1.0327     1.9294    -0.0778 N.ar    
   7 C7            -0.3751     3.6969     0.8164 C.2     
   8 O8            -0.5058     4.6208     1.5953 O.2     
   9 N9            -1.3884     3.3604    -0.0060 N.am    
  10 C10           -2.6231     4.0110     0.1021 C.ar    
  11 C11           -2.6709     5.3621     0.4211 C.ar    
  12 C12           -3.8898     6.0034     0.5271 C.ar    
  13 C13           -5.0667     5.2973     0.3147 C.ar    
  14 C14           -5.0187     3.9483    -0.0038 C.ar    
  15 C15           -3.8003     3.3074    -0.1152 C.ar    
  16 O16           -6.2664     5.9286     0.4195 O.3     
  17 C17           -6.7423     6.5751    -0.6716 C.ar    
  18 C18           -7.9385     7.3045    -0.5839 C.ar    
  19 C19           -8.4107     7.9646    -1.7240 C.ar    
  20 C20           -7.6738     7.8683    -2.8917 C.ar    
  21 C21           -6.5042     7.1304    -2.8990 C.ar    
  22 N22           -6.0746     6.5199    -1.8112 N.ar    
  23 C23           -8.6628     7.3714     0.6496 C.1     
  24 N24           -9.2374     7.4244     1.6282 N.1     
  25 Cl25          -3.9505     7.6918     0.9264 Cl      
  26 H26            1.8307     4.1171     2.3139 H       
  27 H27            3.9512     2.8233     2.2223 H       
  28 H28            4.1306     0.9436     0.6085 H       
  29 H29            2.2170     0.4129    -0.8492 H       
  30 H30           -1.2621     2.6674    -0.6728 H       
  31 H31           -1.7556     5.9108     0.5866 H       
  32 H32           -5.9342     3.3998    -0.1689 H       
  33 H33           -3.7633     2.2580    -0.3677 H       
  34 H34           -9.3274     8.5348    -1.6935 H       
  35 H35           -8.0096     8.3651    -3.7899 H       
  36 H36           -5.9300     7.0558    -3.8107 H       
@<TRIPOS>BOND
   1    1    2 ar
   2    1    6 ar
   3    1    7 1
   4    2    3 ar
   5    2   26 1
   6    3    4 ar
   7    3   27 1
   8    4    5 ar
   9    4   28 1
  10    5    6 ar
  11    5   29 1
  12    7    8 2
  13    7    9 am
  14    9   10 1
  15    9   30 1
  16   10   11 ar
  17   10   15 ar
  18   11   12 ar
  19   11   31 1
  20   12   13 ar
  21   12   25 1
  22   13   14 ar
  23   13   16 1
  24   14   15 ar
  25   14   32 1
  26   15   33 1
  27   16   17 1
  28   17   18 ar
  29   17   22 ar
  30   18   19 ar
  31   18   23 1
  32   19   20 ar
  33   19   34 1
  34   20   21 ar
  35   20   35 1
  36   21   22 ar
  37   21   36 1
  38   23   24 3

#	End of record

