#	Name: ASD01940085
#	Creating user name:	WinNT
#	Creation time:	15. 06. 2019 20:11

#	Modifying user name:	WinNT
#	Modification time:	15. 06. 2019 20:11

#	Program:	/corina/corina34_cracker 3.40 0067  02.08.2006

@<TRIPOS>MOLECULE
ASD01940085
  43   45    0    0    0
SMALL
NO_CHARGES


@<TRIPOS>ATOM
   1 C1             1.7983     1.4188    -1.0478 C.ar    
   2 C2             1.5966     0.0461    -1.1442 C.ar    
   3 C3             1.7678    -0.5936    -2.3645 C.ar    
   4 C4             2.1378     0.1341    -3.4788 C.ar    
   5 C5             2.3380     1.4994    -3.3809 C.ar    
   6 C6             2.1630     2.1421    -2.1686 C.ar    
   7 I7             2.8991     2.5974    -5.0746 I       
   8 F8             1.6329     2.0454     0.1376 F       
   9 N9             1.2223    -0.6887    -0.0137 N.pl3   
  10 C10            1.1517    -2.0657    -0.0779 C.2     
  11 C11            2.3516    -2.8726    -0.2905 C.2     
  12 C12            2.2373    -4.2688    -0.3495 C.2     
  13 N13            1.0105    -4.8541    -0.2073 N.am    
  14 C14           -0.0984    -4.1215    -0.0107 C.2     
  15 C15           -0.0587    -2.7265     0.0630 C.2     
  16 O16           -1.1710    -4.6910     0.1106 O.2     
  17 C17            3.6317    -2.2832    -0.4396 C.2     
  18 N18            4.6886    -3.1049    -0.6332 N.am    
  19 C19            4.5117    -4.4461    -0.6809 C.2     
  20 N20            3.3399    -5.0047    -0.5450 N.2     
  21 O21            3.7757    -1.0743    -0.3952 O.2     
  22 C22            0.9020    -6.3137    -0.2711 C.3     
  23 C23            6.0311    -2.5406    -0.7926 C.3     
  24 C24            6.7000    -2.4210     0.5783 C.3     
  25 O25            6.9008    -3.7255     1.1258 O.3     
  26 C26            8.0504    -1.7178     0.4271 C.3     
  27 O27            8.6222    -1.5018     1.7188 O.3     
  28 H28            1.6122    -1.6595    -2.4424 H       
  29 H29            2.2713    -0.3637    -4.4279 H       
  30 H30            2.3201     3.2081    -2.0953 H       
  31 H31            1.0124    -0.2304     0.8150 H       
  32 H32           -0.9677    -2.1655     0.2223 H       
  33 H33            5.3733    -5.0782    -0.8371 H       
  34 H34            1.0193    -6.7308     0.7291 H       
  35 H35           -0.0756    -6.5884    -0.6670 H       
  36 H36            1.6818    -6.7078    -0.9228 H       
  37 H37            6.6261    -3.1932    -1.4315 H       
  38 H38            5.9584    -1.5534    -1.2488 H       
  39 H39            6.0613    -1.8415     1.2449 H       
  40 H40            7.4613    -4.2976     0.5837 H       
  41 H41            8.7196    -2.3402    -0.1669 H       
  42 H42            7.9072    -0.7593    -0.0717 H       
  43 H43            9.4816    -1.0590     1.6995 H       
@<TRIPOS>BOND
   1    1    2 ar
   2    1    8 1
   3    1    6 ar
   4    2    3 ar
   5    2    9 1
   6    3    4 ar
   7    3   28 1
   8    4    5 ar
   9    4   29 1
  10    5    6 ar
  11    5    7 1
  12    6   30 1
  13    9   10 1
  14    9   31 1
  15   10   11 1
  16   10   15 2
  17   11   12 2
  18   11   17 1
  19   12   13 1
  20   12   20 1
  21   13   14 am
  22   13   22 1
  23   14   15 1
  24   14   16 2
  25   15   32 1
  26   17   18 am
  27   17   21 2
  28   18   19 1
  29   18   23 1
  30   19   20 2
  31   19   33 1
  32   22   34 1
  33   22   35 1
  34   22   36 1
  35   23   24 1
  36   23   37 1
  37   23   38 1
  38   24   25 1
  39   24   26 1
  40   24   39 1
  41   25   40 1
  42   26   27 1
  43   26   41 1
  44   26   42 1
  45   27   43 1

#	End of record

