#	Name: ASD08390009
#	Creating user name:	WinNT
#	Creation time:	15. 06. 2019 21:19

#	Modifying user name:	WinNT
#	Modification time:	15. 06. 2019 21:19

#	Program:	/corina/corina34_cracker 3.40 0067  02.08.2006

@<TRIPOS>MOLECULE
ASD08390009
  53   56    0    0    0
SMALL
NO_CHARGES


@<TRIPOS>ATOM
   1 N1            -0.0179     1.4655     0.0101 N.2     
   2 C2             0.0021    -0.0041     0.0020 C.3     
   3 C3             1.5043    -0.3524    -0.0142 C.3     
   4 N4             2.1526     0.9701    -0.0133 N.pl3   
   5 C5             1.1797     1.9244     0.0011 C.2     
   6 C6             4.0785     1.3098    -1.4502 C.ar    
   7 C7             4.0974     2.5320    -2.0956 C.ar    
   8 C8             4.5449     2.6176    -3.4008 C.ar    
   9 C9             4.9739     1.4809    -4.0602 C.ar    
  10 C10            4.9558     0.2588    -3.4145 C.ar    
  11 C11            4.5070     0.1731    -2.1098 C.ar    
  12 C12            3.5965     1.2176    -0.0253 C.3     
  13 C13            0.1975     4.1808     0.0226 C.ar    
  14 C14           -0.3821     4.5325     1.2273 C.ar    
  15 C15           -1.5613     5.2537     1.2424 C.ar    
  16 C16           -2.1606     5.6236     0.0529 C.ar    
  17 C17           -1.5805     5.2726    -1.1517 C.ar    
  18 C18           -0.4020     4.5502    -1.1669 C.ar    
  19 C19            1.4863     3.3999     0.0061 C.3     
  20 C20            1.8836    -1.1324     1.2182 C.ar    
  21 C21            2.0146    -2.5070     1.1532 C.ar    
  22 C22            2.3624    -3.2224     2.2836 C.ar    
  23 C23            2.5797    -2.5632     3.4791 C.ar    
  24 C24            2.4497    -1.1886     3.5440 C.ar    
  25 C25            2.1060    -0.4727     2.4125 C.ar    
  26 C26           -0.6808    -0.5357    -1.2317 C.2     
  27 O27           -0.2571    -1.5272    -1.7769 O.2     
  28 O28           -1.7597     0.0923    -1.7249 O.3     
  29 C29           -0.6640    -0.5573     1.2634 C.3     
  30 H30            1.7615    -0.9069    -0.9167 H       
  31 H31            3.7623     3.4201    -1.5804 H       
  32 H32            4.5590     3.5724    -3.9053 H       
  33 H33            5.3228     1.5476    -5.0801 H       
  34 H34            5.2903    -0.6293    -3.9299 H       
  35 H35            4.4921    -0.7818    -1.6055 H       
  36 H36            3.8091     2.1534     0.4915 H       
  37 H37            4.1096     0.3991     0.4796 H       
  38 H38            0.0861     4.2435     2.1566 H       
  39 H39           -2.0146     5.5278     2.1836 H       
  40 H40           -3.0823     6.1864     0.0648 H       
  41 H41           -2.0491     5.5610    -2.0811 H       
  42 H42            0.0508     4.2754    -2.1080 H       
  43 H43            2.0718     3.6463     0.8919 H       
  44 H44            2.0548     3.6558    -0.8880 H       
  45 H45            1.8448    -3.0220     0.2192 H       
  46 H46            2.4640    -4.2964     2.2330 H       
  47 H47            2.8508    -3.1223     4.3625 H       
  48 H48            2.6191    -0.6736     4.4780 H       
  49 H49            2.0081     0.6017     2.4622 H       
  50 H50           -2.1636    -0.2860    -2.5179 H       
  51 H51           -1.7062    -0.2393     1.2933 H       
  52 H52           -0.6166    -1.6462     1.2516 H       
  53 H53           -0.1439    -0.1805     2.1441 H       
@<TRIPOS>BOND
   1    1    2 1
   2    1    5 2
   3    2   29 1
   4    2    3 1
   5    2   26 1
   6    3    4 1
   7    3   20 1
   8    3   30 1
   9    4    5 1
  10    4   12 1
  11    5   19 1
  12    6    7 ar
  13    6   11 ar
  14    6   12 1
  15    7    8 ar
  16    7   31 1
  17    8    9 ar
  18    8   32 1
  19    9   10 ar
  20    9   33 1
  21   10   11 ar
  22   10   34 1
  23   11   35 1
  24   12   36 1
  25   12   37 1
  26   13   14 ar
  27   13   18 ar
  28   13   19 1
  29   14   15 ar
  30   14   38 1
  31   15   16 ar
  32   15   39 1
  33   16   17 ar
  34   16   40 1
  35   17   18 ar
  36   17   41 1
  37   18   42 1
  38   19   43 1
  39   19   44 1
  40   20   21 ar
  41   20   25 ar
  42   21   22 ar
  43   21   45 1
  44   22   23 ar
  45   22   46 1
  46   23   24 ar
  47   23   47 1
  48   24   25 ar
  49   24   48 1
  50   25   49 1
  51   26   27 2
  52   26   28 1
  53   28   50 1
  54   29   51 1
  55   29   52 1
  56   29   53 1

#	End of record

