#	Name: ASD01320112
#	Creating user name:	WinNT
#	Creation time:	15. 06. 2019 19:16

#	Modifying user name:	WinNT
#	Modification time:	15. 06. 2019 19:16

#	Program:	/corina/corina34_cracker 3.40 0067  02.08.2006

@<TRIPOS>MOLECULE
ASD01320112
  36   38    0    0    0
SMALL
NO_CHARGES


@<TRIPOS>ATOM
   1 C1            -0.0187     1.5267     0.0104 C.3     
   2 N2            -1.8104     2.8746    -1.1910 N.pl3   
   3 C3             0.0021    -0.0041     0.0020 C.3     
   4 N4            -0.4505     1.7091    -2.4371 N.2     
   5 O5             0.6232    -0.4666    -1.1989 O.3     
   6 C6             0.7956    -0.5028     1.2136 C.3     
   7 O7             0.8826    -1.9286     1.1740 O.3     
   8 C8             2.2039     0.0979     1.1702 C.3     
   9 O9             2.8834    -0.3620     0.0002 O.3     
  10 C10            2.0981     1.6247     1.1335 C.3     
  11 O11            1.3225     2.0200     0.0003 O.3     
  12 C12            1.4213     2.1202     2.4131 C.3     
  13 O13            1.4271     3.5490     2.4324 O.3     
  14 C14           -1.4382     2.3475    -4.6796 C.ar    
  15 C15           -1.3040     2.3330    -3.2891 C.ar    
  16 C16           -2.1884     3.0895    -2.5013 C.ar    
  17 C17           -3.1839     3.8417    -3.1092 C.ar    
  18 C18           -3.2975     3.8410    -4.4835 C.ar    
  19 C19           -2.4241     3.0940    -5.2607 C.ar    
  20 C20           -0.7471     2.0261    -1.2106 C.2     
  21 H21           -0.5286     1.8784     0.9073 H       
  22 H22           -2.2237     3.2602    -0.4027 H       
  23 H23           -1.0188    -0.3825     0.0532 H       
  24 H24            0.6707    -1.4297    -1.2714 H       
  25 H25            0.2939    -0.1935     2.1305 H       
  26 H26            0.0253    -2.3757     1.1915 H       
  27 H27            2.7582    -0.2085     2.0574 H       
  28 H28            2.9820    -1.3229    -0.0453 H       
  29 H29            3.0962     2.0566     1.0594 H       
  30 H30            0.3927     1.7605     2.4427 H       
  31 H31            1.9632     1.7429     3.2803 H       
  32 H32            1.0129     3.9334     3.2171 H       
  33 H33           -0.7640     1.7695    -5.2942 H       
  34 H34           -3.8665     4.4247    -2.5087 H       
  35 H35           -4.0718     4.4255    -4.9579 H       
  36 H36           -2.5244     3.1029    -6.3360 H       
@<TRIPOS>BOND
   1    1    3 1
   2    1   11 1
   3    1   20 1
   4    1   21 1
   5    2   16 1
   6    2   20 1
   7    2   22 1
   8    3    5 1
   9    3    6 1
  10    3   23 1
  11    4   15 1
  12    4   20 2
  13    5   24 1
  14    6    7 1
  15    6    8 1
  16    6   25 1
  17    7   26 1
  18    8    9 1
  19    8   10 1
  20    8   27 1
  21    9   28 1
  22   10   11 1
  23   10   12 1
  24   10   29 1
  25   12   13 1
  26   12   30 1
  27   12   31 1
  28   13   32 1
  29   14   15 ar
  30   14   19 ar
  31   14   33 1
  32   15   16 ar
  33   16   17 ar
  34   17   18 ar
  35   17   34 1
  36   18   19 ar
  37   18   35 1
  38   19   36 1

#	End of record

