#	Name: ASD01913129
#	Creating user name:	WinNT
#	Creation time:	15. 06. 2019 20:01

#	Modifying user name:	WinNT
#	Modification time:	15. 06. 2019 20:01

#	Program:	/corina/corina34_cracker 3.40 0067  02.08.2006

@<TRIPOS>MOLECULE
ASD01913129
  45   48    0    0    0
SMALL
NO_CHARGES


@<TRIPOS>ATOM
   1 C1            -0.8017     1.9767     1.1382 C.ar    
   2 C2            -0.8227     0.5491     0.7334 C.2     
   3 N3            -1.8472    -0.3164     0.9030 N.2     
   4 C4            -1.4975    -1.4745     0.4238 C.2     
   5 O5            -0.2522    -1.3891    -0.0626 O.3     
   6 C6             0.1796    -0.1262     0.1202 C.2     
   7 C7            -2.3556    -2.7134     0.4176 C.3     
   8 C8            -2.5747    -3.1758    -1.0247 C.3     
   9 C9            -3.4730    -4.4148    -1.0341 C.3     
  10 C10           -2.7846    -5.5455    -0.2632 C.3     
  11 N11           -2.4397    -5.0604     1.0801 N.am    
  12 C12           -1.6545    -3.8248     1.2050 C.3     
  13 C13           -2.8360    -5.7359     2.1769 C.2     
  14 C14           -3.6952    -6.9296     2.0389 C.ar    
  15 O15           -2.4865    -5.3629     3.2799 O.2     
  16 C16            0.3311     2.7554     0.8991 C.ar    
  17 C17            0.3450     4.0846     1.2783 C.ar    
  18 C18           -0.7629     4.6420     1.8946 C.ar    
  19 C19           -1.8893     3.8712     2.1339 C.ar    
  20 C20           -1.9153     2.5452     1.7530 C.ar    
  21 C21           -3.3422    -7.9482     1.1511 C.ar    
  22 C22           -4.1475    -9.0598     1.0261 C.ar    
  23 C23           -5.6584    -8.1621     2.6671 C.ar    
  24 C24           -4.8603    -7.0462     2.7999 C.ar    
  25 F25            1.4122     2.2115     0.2987 F       
  26 F26           -0.7452     5.9413     2.2641 F       
  27 C27           -5.3062    -9.1679     1.7799 C.ar    
  28 F28           -6.0920   -10.2595     1.6536 F       
  29 H29            1.1435     0.2708    -0.1622 H       
  30 H30           -3.3180    -2.4917     0.8788 H       
  31 H31           -3.0513    -2.3774    -1.5935 H       
  32 H32           -1.6139    -3.4204    -1.4776 H       
  33 H33           -4.4249    -4.1776    -0.5590 H       
  34 H34           -3.6478    -4.7297    -2.0629 H       
  35 H35           -3.4606    -6.3967    -0.1819 H       
  36 H36           -1.8773    -5.8456    -0.7874 H       
  37 H37           -0.6550    -3.9846     0.8004 H       
  38 H38           -1.5848    -3.5407     2.2550 H       
  39 H39            1.2209     4.6890     1.0941 H       
  40 H40           -2.7505     4.3105     2.6152 H       
  41 H41           -2.7942     1.9461     1.9400 H       
  42 H42           -2.4400    -7.8648     0.5632 H       
  43 H43           -3.8756    -9.8479     0.3395 H       
  44 H44           -6.5597    -8.2533     3.2551 H       
  45 H45           -5.1355    -6.2634     3.4912 H       
@<TRIPOS>BOND
   1    1    2 1
   2    1   16 ar
   3    1   20 ar
   4    2    3 1
   5    2    6 2
   6    3    4 2
   7    4    5 1
   8    4    7 1
   9    5    6 1
  10    6   29 1
  11    7    8 1
  12    7   12 1
  13    7   30 1
  14    8    9 1
  15    8   31 1
  16    8   32 1
  17    9   10 1
  18    9   33 1
  19    9   34 1
  20   10   11 1
  21   10   35 1
  22   10   36 1
  23   11   12 1
  24   11   13 am
  25   12   37 1
  26   12   38 1
  27   13   14 1
  28   13   15 2
  29   14   21 ar
  30   14   24 ar
  31   16   17 ar
  32   16   25 1
  33   17   18 ar
  34   17   39 1
  35   18   19 ar
  36   18   26 1
  37   19   20 ar
  38   19   40 1
  39   20   41 1
  40   21   22 ar
  41   21   42 1
  42   22   27 ar
  43   22   43 1
  44   23   24 ar
  45   23   27 ar
  46   23   44 1
  47   24   45 1
  48   27   28 1

#	End of record

