#	Name: ASD00110026
#	Creating user name:	WinNT
#	Creation time:	15. 06. 2019 18:30

#	Modifying user name:	WinNT
#	Modification time:	15. 06. 2019 18:30

#	Program:	/corina/corina34_cracker 3.40 0067  02.08.2006

@<TRIPOS>MOLECULE
ASD00110026
  81   82    0    0    0
SMALL
NO_CHARGES


@<TRIPOS>ATOM
   1 C1            -0.0187     1.5258     0.0104 C.3     
   2 C2             1.3911     3.5856     0.0696 C.3     
   3 C3             2.8031     4.1121     0.0790 C.2     
   4 N4             3.4939     4.2092    -1.0742 N.am    
   5 O5             3.3179     4.4485     1.1244 O.2     
   6 C6             4.8665     4.7211    -1.0649 C.3     
   7 C7             5.8348     3.5785    -0.7519 C.3     
   8 O8             5.7964     2.6184    -1.8097 O.3     
   9 C9             5.2001     5.3110    -2.4367 C.3     
  10 O10            5.0771     4.2955    -3.4345 O.3     
  11 C11            0.0021    -0.0041     0.0020 C.3     
  12 C12           -1.4290    -0.5329    -0.1129 C.3     
  13 N13            0.7028     4.0090     1.2957 N.3     
  14 C14           -0.6922     3.5505     1.3068 C.3     
  15 C15           -0.7282     2.0210     1.2737 C.3     
  16 C16            1.4173     2.0571    -0.0004 C.3     
  17 C17           -1.4083    -2.0627    -0.1213 C.3     
  18 C18           -2.8394    -2.5916    -0.2362 C.3     
  19 C19           -2.8186    -4.1214    -0.2446 C.3     
  20 C20           -4.2497    -4.6502    -0.3595 C.3     
  21 C21           -4.2290    -6.1801    -0.3679 C.3     
  22 C22           -5.6601    -6.7089    -0.4828 C.3     
  23 C23           -5.6393    -8.2387    -0.4913 C.3     
  24 C24           -7.0704    -8.7676    -0.6062 C.3     
  25 C25           -7.0497   -10.2974    -0.6146 C.3     
  26 C26            4.2464     6.4363    -2.7450 C.ar    
  27 C27            2.4969     8.5009    -3.3111 C.ar    
  28 C28            2.0990     7.1892    -3.4898 C.ar    
  29 C29            2.9739     6.1569    -3.2070 C.ar    
  30 C30            4.6422     7.7479    -2.5603 C.ar    
  31 C31            3.7674     8.7802    -2.8431 C.ar    
  32 S32            1.3819     9.8167    -3.6715 S.o2    
  33 O33            2.2263    10.9165    -3.9823 O.2     
  34 O34            0.5001     9.2724    -4.6438 O.2     
  35 C35            0.5058    10.1082    -2.1100 C.3     
  36 H36           -0.5477     1.8877    -0.8712 H       
  37 H37            0.8624     3.9797    -0.7983 H       
  38 H38            3.0822     3.9402    -1.9102 H       
  39 H39            4.9603     5.4957    -0.3038 H       
  40 H40            6.8458     3.9747    -0.6573 H       
  41 H41            5.5428     3.1007     0.1832 H       
  42 H42            6.3872     1.8643    -1.6779 H       
  43 H43            6.2214     5.6918    -2.4298 H       
  44 H44            4.1922     3.9106    -3.4970 H       
  45 H45            0.5883    -0.3548    -0.8473 H       
  46 H46            0.4501    -0.3665     0.9272 H       
  47 H47           -2.0153    -0.1821     0.7365 H       
  48 H48           -1.8771    -0.1705    -1.0381 H       
  49 H49            1.1953     3.6884     2.1159 H       
  50 H50           -1.1841     3.9059     2.2122 H       
  51 H51           -1.2111     3.9450     0.4331 H       
  52 H52           -1.7639     1.6814     1.2662 H       
  53 H53           -0.2215     1.6259     2.1542 H       
  54 H54            1.9578     1.6626     0.8600 H       
  55 H55            1.9145     1.7433    -0.9183 H       
  56 H56           -0.8220    -2.4135    -0.9706 H       
  57 H57           -0.9602    -2.4251     0.8039 H       
  58 H58           -3.4256    -2.2408     0.6131 H       
  59 H59           -3.2874    -2.2292    -1.1614 H       
  60 H60           -2.2324    -4.4722    -1.0940 H       
  61 H61           -2.3706    -4.4838     0.6806 H       
  62 H62           -4.8360    -4.2995     0.4898 H       
  63 H63           -4.6978    -4.2879    -1.2847 H       
  64 H64           -3.6427    -6.5308    -1.2173 H       
  65 H65           -3.7809    -6.5425     0.5573 H       
  66 H66           -6.2463    -6.3582     0.3665 H       
  67 H67           -6.1081    -6.3465    -1.4081 H       
  68 H68           -5.0531    -8.5895    -1.3406 H       
  69 H69           -5.1912    -8.6011     0.4340 H       
  70 H70           -7.6567    -8.4168     0.2432 H       
  71 H71           -7.5185    -8.4052    -1.5314 H       
  72 H72           -8.0692   -10.6742    -0.6964 H       
  73 H73           -6.4634   -10.6482    -1.4639 H       
  74 H74           -6.6016   -10.6598     0.3106 H       
  75 H75            1.1065     6.9710    -3.8554 H       
  76 H76            2.6633     5.1321    -3.3474 H       
  77 H77            5.6347     7.9660    -2.1947 H       
  78 H78            4.0783     9.8050    -2.7035 H       
  79 H79            1.2232    10.3830    -1.3368 H       
  80 H80           -0.2133    10.9165    -2.2423 H       
  81 H81           -0.0187     9.2001    -1.8127 H       
@<TRIPOS>BOND
   1    1   11 1
   2    1   16 1
   3    1   15 1
   4    1   36 1
   5    2    3 1
   6    2   13 1
   7    2   16 1
   8    2   37 1
   9    3    4 am
  10    3    5 2
  11    4    6 1
  12    4   38 1
  13    6    7 1
  14    6    9 1
  15    6   39 1
  16    7    8 1
  17    7   40 1
  18    7   41 1
  19    8   42 1
  20    9   10 1
  21    9   26 1
  22    9   43 1
  23   10   44 1
  24   11   12 1
  25   11   45 1
  26   11   46 1
  27   12   17 1
  28   12   47 1
  29   12   48 1
  30   13   14 1
  31   13   49 1
  32   14   15 1
  33   14   50 1
  34   14   51 1
  35   15   52 1
  36   15   53 1
  37   16   54 1
  38   16   55 1
  39   17   18 1
  40   17   56 1
  41   17   57 1
  42   18   19 1
  43   18   58 1
  44   18   59 1
  45   19   20 1
  46   19   60 1
  47   19   61 1
  48   20   21 1
  49   20   62 1
  50   20   63 1
  51   21   22 1
  52   21   64 1
  53   21   65 1
  54   22   23 1
  55   22   66 1
  56   22   67 1
  57   23   24 1
  58   23   68 1
  59   23   69 1
  60   24   25 1
  61   24   70 1
  62   24   71 1
  63   25   72 1
  64   25   73 1
  65   25   74 1
  66   26   30 ar
  67   26   29 ar
  68   27   28 ar
  69   27   31 ar
  70   27   32 1
  71   28   29 ar
  72   28   75 1
  73   29   76 1
  74   30   31 ar
  75   30   77 1
  76   31   78 1
  77   32   33 2
  78   32   34 2
  79   32   35 1
  80   35   79 1
  81   35   80 1
  82   35   81 1

#	End of record

