#	Name: ASD04880306
#	Creating user name:	WinNT
#	Creation time:	15. 06. 2019 20:53

#	Modifying user name:	WinNT
#	Modification time:	15. 06. 2019 20:53

#	Program:	/corina/corina34_cracker 3.40 0067  02.08.2006

@<TRIPOS>MOLECULE
ASD04880306
  50   53    0    0    0
SMALL
NO_CHARGES


@<TRIPOS>ATOM
   1 C1            -0.0189     1.3811    -0.0358 C.ar    
   2 C2             0.0017    -0.0065    -0.0832 C.ar    
   3 C3             1.2020    -0.6826    -0.0835 C.ar    
   4 C4             2.4042     0.0280    -0.0360 C.ar    
   5 C5             2.3848     1.4244     0.0114 C.ar    
   6 C6             1.1782     2.0968     0.0115 C.ar    
   7 C7             3.6909    -0.6943    -0.0353 C.2     
   8 N8             3.7090    -2.0386     0.0598 N.am    
   9 O9             4.7351    -0.0766    -0.1206 O.2     
  10 C10            4.9059    -2.8882    -0.0464 C.3     
  11 N11            2.5984    -2.8505     0.2806 N.2     
  12 C12            2.8686    -4.1094     0.3328 C.2     
  13 C13            4.3533    -4.3158     0.1348 C.3     
  14 C14            1.8827    -5.1825     0.5552 C.ar    
  15 C15            0.5324    -4.8681     0.7294 C.ar    
  16 C16            2.2953    -6.5171     0.5867 C.ar    
  17 C17            1.3715    -7.5194     0.7949 C.ar    
  18 C18            0.0317    -7.2065     0.9731 C.ar    
  19 C19           -0.3877    -5.8784     0.9377 C.ar    
  20 O20           -1.7019    -5.5755     1.1131 O.3     
  21 O21           -0.8749    -8.1985     1.1771 O.3     
  22 C22           -0.3776    -9.5381     1.1959 C.3     
  23 C23           -2.0611    -4.1933     1.0646 C.3     
  24 O24            0.8870     3.4301     0.0521 O.3     
  25 C25           -0.4969     3.5088     0.4416 C.3     
  26 O26           -1.0555     2.2671    -0.0305 O.3     
  27 C27           -0.6218     3.6160     1.9627 C.3     
  28 C28           -1.1805     4.6957    -0.2402 C.3     
  29 H29           -0.9264    -0.5576    -0.1196 H       
  30 H30            1.2139    -1.7619    -0.1201 H       
  31 H31            3.3118     1.9772     0.0486 H       
  32 H32            5.3689    -2.7776    -1.0269 H       
  33 H33            5.6173    -2.6490     0.7441 H       
  34 H34            4.5405    -4.9149    -0.7564 H       
  35 H35            4.7942    -4.7871     1.0131 H       
  36 H36            0.2085    -3.8382     0.7017 H       
  37 H37            3.3376    -6.7636     0.4476 H       
  38 H38            1.6916    -8.5506     0.8191 H       
  39 H39           -1.2027   -10.2296     1.3669 H       
  40 H40            0.0935    -9.7641     0.2393 H       
  41 H41            0.3555    -9.6423     1.9957 H       
  42 H42           -1.7933    -3.7822     0.0913 H       
  43 H43           -3.1354    -4.0915     1.2189 H       
  44 H44           -1.5289    -3.6518     1.8467 H       
  45 H45           -0.1167     4.5189     2.3060 H       
  46 H46           -1.6754     3.6619     2.2384 H       
  47 H47           -0.1623     2.7437     2.4274 H       
  48 H48           -1.1132     4.5814    -1.3221 H       
  49 H49           -2.2286     4.7311     0.0570 H       
  50 H50           -0.6866     5.6203     0.0589 H       
@<TRIPOS>BOND
   1    1    2 ar
   2    1    6 ar
   3    1   26 1
   4    2    3 ar
   5    2   29 1
   6    3    4 ar
   7    3   30 1
   8    4    5 ar
   9    4    7 1
  10    5    6 ar
  11    5   31 1
  12    6   24 1
  13    7    8 am
  14    7    9 2
  15    8   10 1
  16    8   11 1
  17   10   13 1
  18   10   32 1
  19   10   33 1
  20   11   12 2
  21   12   13 1
  22   12   14 1
  23   13   34 1
  24   13   35 1
  25   14   15 ar
  26   14   16 ar
  27   15   19 ar
  28   15   36 1
  29   16   17 ar
  30   16   37 1
  31   17   18 ar
  32   17   38 1
  33   18   19 ar
  34   18   21 1
  35   19   20 1
  36   20   23 1
  37   21   22 1
  38   22   39 1
  39   22   40 1
  40   22   41 1
  41   23   42 1
  42   23   43 1
  43   23   44 1
  44   24   25 1
  45   25   26 1
  46   25   27 1
  47   25   28 1
  48   27   45 1
  49   27   46 1
  50   27   47 1
  51   28   48 1
  52   28   49 1
  53   28   50 1

#	End of record

