#	Name: ASD01200314
#	Creating user name:	WinNT
#	Creation time:	15. 06. 2019 19:08

#	Modifying user name:	WinNT
#	Modification time:	15. 06. 2019 19:08

#	Program:	/corina/corina34_cracker 3.40 0067  02.08.2006

@<TRIPOS>MOLECULE
ASD01200314
  17   18    0    0    0
SMALL
NO_CHARGES


@<TRIPOS>ATOM
   1 C1            -0.0169     1.3933     0.0097 C.ar    
   2 C2             0.0021    -0.0041     0.0020 C.ar    
   3 C3            -1.1552    -0.7217     0.0092 C.ar    
   4 C4            -2.3871    -0.0517     0.0245 C.ar    
   5 C5            -2.4076     1.3669     0.0324 C.ar    
   6 C6            -1.2004     2.0780     0.0303 C.ar    
   7 N7            -3.5531    -0.7110     0.0317 N.ar    
   8 C8            -4.6862    -0.0513     0.0456 C.ar    
   9 N9            -4.7481     1.2723     0.0529 N.ar    
  10 C10           -3.6581     2.0153     0.0474 C.ar    
  11 O11            1.1557     2.0803     0.0022 O.3     
  12 Cl12          -3.7622     3.7481     0.0577 Cl      
  13 H13            0.9492    -0.5228    -0.0102 H       
  14 H14           -1.1245    -1.8012     0.0028 H       
  15 H15           -1.2046     3.1579     0.0366 H       
  16 H16           -5.6096    -0.6114     0.0511 H       
  17 H17            1.4866     2.2839    -0.8833 H       
@<TRIPOS>BOND
   1    1    2 ar
   2    1   11 1
   3    1    6 ar
   4    2    3 ar
   5    2   13 1
   6    3    4 ar
   7    3   14 1
   8    4    5 ar
   9    4    7 ar
  10    5    6 ar
  11    5   10 ar
  12    6   15 1
  13    7    8 ar
  14    8    9 ar
  15    8   16 1
  16    9   10 ar
  17   10   12 1
  18   11   17 1

#	End of record

