#	Name: ASD08178081
#	Creating user name:	WinNT
#	Creation time:	15. 06. 2019 21:18

#	Modifying user name:	WinNT
#	Modification time:	15. 06. 2019 21:18

#	Program:	/corina/corina34_cracker 3.40 0067  02.08.2006

@<TRIPOS>MOLECULE
ASD08178081
  73   77    0    0    0
SMALL
NO_CHARGES


@<TRIPOS>ATOM
   1 N1            -3.4198    -0.7787     0.3534 N.2     
   2 N2            -2.7009    -1.8160     0.3217 N.2     
   3 C3            -2.8305     0.3684     0.1981 C.2     
   4 S4            -1.1522     0.0990    -0.0154 S.3     
   5 C5            -1.4318    -1.6361     0.1354 C.2     
   6 N6            -3.4580     1.6095     0.2041 N.am    
   7 C7            -4.7915     1.6896     0.3829 C.2     
   8 O8            -5.4442     0.6793     0.5385 O.2     
   9 C9            -0.3825    -2.7152     0.0619 C.3     
  10 C10            2.1211    -5.9771    -3.4900 C.3     
  11 C11            2.1585    -6.3140    -4.9583 C.2     
  12 N12            2.9151    -5.7581    -5.8506 N.2     
  13 S13            1.1853    -7.5416    -5.7693 S.3     
  14 C14            1.9390    -7.1317    -7.2521 C.2     
  15 N15            2.7981    -6.1822    -7.0340 N.2     
  16 N16            1.6782    -7.7217    -8.4842 N.am    
  17 C17            2.3407    -7.3087    -9.5828 C.2     
  18 O18            3.1644    -6.4226    -9.4970 O.2     
  19 C19            2.0581    -7.9480   -10.9179 C.3     
  20 C20           -5.4714     3.0345     0.3893 C.3     
  21 C21           -0.2224    -3.1729    -1.3893 C.3     
  22 C22            1.0858    -4.8774    -3.2453 C.3     
  23 C23           -6.9511     2.8482     0.6056 C.ar    
  24 C24           -7.4665     2.8396     1.8883 C.ar    
  25 C25           -8.8238     2.6687     2.0867 C.ar    
  26 C26           -9.6658     2.5068     1.0024 C.ar    
  27 C27           -9.1506     2.5163    -0.2803 C.ar    
  28 C28           -7.7938     2.6915    -0.4789 C.ar    
  29 C29            0.9231    -7.2216   -11.5925 C.ar    
  30 C30            1.1335    -5.9722   -12.1453 C.ar    
  31 C31           -0.3271    -7.8072   -11.6634 C.ar    
  32 C32           -1.3683    -7.1409   -12.2822 C.ar    
  33 C33           -1.1594    -5.8889   -12.8296 C.ar    
  34 C34            0.0923    -5.3059   -12.7640 C.ar    
  35 N35            3.2585    -7.8714   -11.7613 N.3     
  36 C36            3.0257    -8.5039   -13.0673 C.3     
  37 C37            4.2696    -8.3334   -13.9426 C.3     
  38 N38            5.4270    -8.9366   -13.2673 N.3     
  39 C39            5.6598    -8.3041   -11.9614 C.3     
  40 C40            4.4159    -8.4747   -11.0861 C.3     
  41 S41            1.0407    -4.4719    -1.4778 S.3     
  42 H42           -2.9360     2.4175     0.0796 H       
  43 H43            0.5673    -2.3238     0.4262 H       
  44 H44           -0.6873    -3.5610     0.6781 H       
  45 H45            1.8490    -6.8656    -2.9201 H       
  46 H46            3.1036    -5.6283    -3.1720 H       
  47 H47            1.0194    -8.4304    -8.5529 H       
  48 H48            1.7841    -8.9925   -10.7699 H       
  49 H49           -5.0608     3.6453     1.1933 H       
  50 H50           -5.3036     3.5311    -0.5663 H       
  51 H51           -1.1722    -3.5643    -1.7536 H       
  52 H52            0.0824    -2.3271    -2.0055 H       
  53 H53            1.3579    -3.9890    -3.8151 H       
  54 H54            0.1032    -5.2262    -3.5632 H       
  55 H55           -6.8086     2.9661     2.7354 H       
  56 H56           -9.2263     2.6613     3.0888 H       
  57 H57          -10.7262     2.3725     1.1574 H       
  58 H58           -9.8084     2.3895    -1.1274 H       
  59 H59           -7.3913     2.6990    -1.4811 H       
  60 H60            2.1112    -5.5165   -12.0935 H       
  61 H61           -0.4903    -8.7854   -11.2357 H       
  62 H62           -2.3449    -7.5987   -12.3382 H       
  63 H63           -1.9728    -5.3685   -13.3134 H       
  64 H64            0.2555    -4.3278   -13.1918 H       
  65 H65            2.8231    -9.5656   -12.9262 H       
  66 H66            2.1717    -8.0318   -13.5529 H       
  67 H67            4.1100    -8.8269   -14.9013 H       
  68 H68            4.4564    -7.2721   -14.1062 H       
  69 H69            5.3097    -9.9341   -13.1703 H       
  70 H70            6.5138    -8.7763   -11.4757 H       
  71 H71            5.8624    -7.2425   -12.1025 H       
  72 H72            4.5755    -7.9812   -10.1274 H       
  73 H73            4.2291    -9.5360   -10.9225 H       
@<TRIPOS>BOND
   1    1    2 1
   2    1    3 2
   3    2    5 2
   4    3    4 1
   5    3    6 1
   6    4    5 1
   7    5    9 1
   8    6    7 am
   9    6   42 1
  10    7    8 2
  11    7   20 1
  12    9   21 1
  13    9   43 1
  14    9   44 1
  15   10   11 1
  16   10   22 1
  17   10   45 1
  18   10   46 1
  19   11   12 2
  20   11   13 1
  21   12   15 1
  22   13   14 1
  23   14   15 2
  24   14   16 1
  25   16   17 am
  26   16   47 1
  27   17   18 2
  28   17   19 1
  29   19   35 1
  30   19   29 1
  31   19   48 1
  32   20   23 1
  33   20   49 1
  34   20   50 1
  35   21   41 1
  36   21   51 1
  37   21   52 1
  38   22   41 1
  39   22   53 1
  40   22   54 1
  41   23   24 ar
  42   23   28 ar
  43   24   25 ar
  44   24   55 1
  45   25   26 ar
  46   25   56 1
  47   26   27 ar
  48   26   57 1
  49   27   28 ar
  50   27   58 1
  51   28   59 1
  52   29   30 ar
  53   29   31 ar
  54   30   34 ar
  55   30   60 1
  56   31   32 ar
  57   31   61 1
  58   32   33 ar
  59   32   62 1
  60   33   34 ar
  61   33   63 1
  62   34   64 1
  63   35   36 1
  64   35   40 1
  65   36   37 1
  66   36   65 1
  67   36   66 1
  68   37   38 1
  69   37   67 1
  70   37   68 1
  71   38   39 1
  72   38   69 1
  73   39   40 1
  74   39   70 1
  75   39   71 1
  76   40   72 1
  77   40   73 1

#	End of record

