#	Name: ASD01940029
#	Creating user name:	WinNT
#	Creation time:	15. 06. 2019 20:11

#	Modifying user name:	WinNT
#	Modification time:	15. 06. 2019 20:11

#	Program:	/corina/corina34_cracker 3.40 0067  02.08.2006

@<TRIPOS>MOLECULE
ASD01940029
  47   49    0    0    0
SMALL
NO_CHARGES


@<TRIPOS>ATOM
   1 C1            -0.3053     1.4708     0.4980 C.ar    
   2 C2            -0.3515     0.2651    -0.1894 C.ar    
   3 C3            -1.5457    -0.4195    -0.3036 C.ar    
   4 C4            -2.6990     0.0966     0.2680 C.ar    
   5 C5            -2.6542     1.3023     0.9557 C.ar    
   6 C6            -1.4594     1.9853     1.0751 C.ar    
   7 N7             0.9046     2.1644     0.6142 N.pl3   
   8 C8             0.9123     3.5476     0.6069 C.2     
   9 C9             1.9973     4.3838     0.8290 C.2     
  10 C10            1.6813     5.7412     0.7539 C.2     
  11 N11            0.4454     6.0421     0.4929 N.2     
  12 S12           -0.4192     4.5960     0.3132 S.3     
  13 O13            2.6220     6.7022     0.9454 O.3     
  14 C14            3.3524     3.8864     1.1168 C.2     
  15 N15            3.7420     3.6613     2.4207 N.pl3   
  16 N16            4.1865     3.6582     0.1368 N.2     
  17 C17            5.0908     3.1664     2.7071 C.3     
  18 C18            6.0631     4.3457     2.7747 C.3     
  19 C19            5.0894     2.4290     4.0477 C.3     
  20 O20            4.7941     3.3514     5.0984 O.3     
  21 O21           -3.8743    -0.5779     0.1546 O.3     
  22 C22           -3.8954    -1.6982    -0.6145 C.ar    
  23 C23           -3.5494    -2.9252    -0.0652 C.ar    
  24 C24           -3.5718    -4.0638    -0.8510 C.ar    
  25 C25           -3.9383    -3.9788    -2.1825 C.ar    
  26 C26           -4.2683    -1.6183    -1.9486 C.ar    
  27 Cl27          -3.0885    -3.0309     1.6051 Cl      
  28 C28           -4.2827    -2.7569    -2.7306 C.ar    
  29 Cl29          -3.1395    -5.5993    -0.1663 Cl      
  30 Cl30          -4.0983     1.9478     1.6709 Cl      
  31 H31            0.5463    -0.1371    -0.6351 H       
  32 H32           -1.5813    -1.3570    -0.8386 H       
  33 H33           -1.4241     2.9228     1.6102 H       
  34 H34            1.7378     1.6751     0.7000 H       
  35 H35            3.0760     6.9749     0.1363 H       
  36 H36            3.1229     3.8308     3.1479 H       
  37 H37            5.0796     3.3304     0.3265 H       
  38 H38            5.4025     2.4833     1.9170 H       
  39 H39            7.0667     3.9774     2.9879 H       
  40 H40            6.0641     4.8710     1.8197 H       
  41 H41            5.7514     5.0288     3.5649 H       
  42 H42            4.3331     1.6442     4.0299 H       
  43 H43            6.0699     1.9848     4.2190 H       
  44 H44            4.7766     2.9521     5.9789 H       
  45 H45           -3.9551    -4.8682    -2.7949 H       
  46 H46           -4.5425    -0.6654    -2.3767 H       
  47 H47           -4.5677    -2.6934    -3.7704 H       
@<TRIPOS>BOND
   1    1    2 ar
   2    1    7 1
   3    1    6 ar
   4    2    3 ar
   5    2   31 1
   6    3    4 ar
   7    3   32 1
   8    4    5 ar
   9    4   21 1
  10    5    6 ar
  11    5   30 1
  12    6   33 1
  13    7    8 1
  14    7   34 1
  15    8    9 2
  16    8   12 1
  17    9   10 1
  18    9   14 1
  19   10   11 2
  20   10   13 1
  21   11   12 1
  22   13   35 1
  23   14   15 1
  24   14   16 2
  25   15   17 1
  26   15   36 1
  27   16   37 1
  28   17   18 1
  29   17   19 1
  30   17   38 1
  31   18   39 1
  32   18   40 1
  33   18   41 1
  34   19   20 1
  35   19   42 1
  36   19   43 1
  37   20   44 1
  38   21   22 1
  39   22   23 ar
  40   22   26 ar
  41   23   24 ar
  42   23   27 1
  43   24   25 ar
  44   24   29 1
  45   25   28 ar
  46   25   45 1
  47   26   28 ar
  48   26   46 1
  49   28   47 1

#	End of record

