#	Name: ASD07110020
#	Creating user name:	WinNT
#	Creation time:	15. 06. 2019 21:09

#	Modifying user name:	WinNT
#	Modification time:	15. 06. 2019 21:09

#	Program:	/corina/corina34_cracker 3.40 0067  02.08.2006

@<TRIPOS>MOLECULE
ASD07110020
 440  448    0    0    0
SMALL
NO_CHARGES


@<TRIPOS>ATOM
   1 C1            23.7878    14.0420    -8.9271 C.2     
   2 O2            23.7102    13.1996    -8.0580 O.2     
   3 N3            25.8962    12.9745    -9.4928 N.3     
   4 C4            24.9792    14.0653    -9.8496 C.3     
   5 C5            20.8062    13.7596    -8.3537 C.2     
   6 O6            21.2159    12.8534    -9.0478 O.2     
   7 N7            22.8058    14.9538    -9.0714 N.am    
   8 C8            21.5907    15.0420    -8.2484 C.3     
   9 C9            20.7519    16.2167    -8.7943 C.3     
  10 C10           21.2707    16.3678   -10.2487 C.3     
  11 C11           22.7753    16.0319   -10.0765 C.3     
  12 C12           17.4345    12.6470    -7.4841 C.2     
  13 O13           17.0722    13.7727    -7.2149 O.2     
  14 N14           19.6494    13.6198    -7.6766 N.am    
  15 C15           18.8867    12.3731    -7.7790 C.3     
  16 C16           19.4295    11.3589    -6.7702 C.3     
  17 O17           19.1977    11.8360    -5.4433 O.3     
  18 C18           14.5494    10.6122    -6.5841 C.2     
  19 O19           15.1319     9.5582    -6.7281 O.2     
  20 N20           16.5383    11.6410    -7.5195 N.am    
  21 C21           15.1480    11.8843    -7.1267 C.3     
  22 C22           14.3469    12.3455    -8.3458 C.3     
  23 C23           14.6624    11.4380    -9.5365 C.3     
  24 C24           14.0481    10.0565    -9.3017 C.3     
  25 C25           14.0756    12.0470   -10.8115 C.3     
  26 C26           12.3447     8.5070    -6.5056 C.2     
  27 O27           12.4522     8.8526    -7.6632 O.2     
  28 N28           13.3666    10.6458    -5.9388 N.am    
  29 C29           12.6527     9.4803    -5.3970 C.3     
  30 C30           11.3396     9.9970    -4.7724 C.3     
  31 C31           11.1197    11.3514    -5.4965 C.3     
  32 C32           12.5775    11.8580    -5.6537 C.3     
  33 C33           10.3085     5.8766    -7.3516 C.2     
  34 O34            9.5100     6.3644    -6.5801 O.2     
  35 N35           11.9499     7.2526    -6.2107 N.am    
  36 C36           11.7609     6.2729    -7.2835 C.3     
  37 C37           12.6146     5.0353    -7.0000 C.3     
  38 C38           14.0733     5.4116    -7.0386 C.2     
  39 C39           14.9043     5.2809    -8.0847 C.2     
  40 N40           16.1527     5.7282    -7.7476 N.pl3   
  41 C41           16.1557     6.1689    -6.4431 C.ar    
  42 C42           17.1354     6.7099    -5.6174 C.ar    
  43 C43           16.8210     7.0631    -4.3232 C.ar    
  44 C44           15.5348     6.8846    -3.8333 C.ar    
  45 C45           14.5569     6.3543    -4.6272 C.ar    
  46 C46           14.8518     5.9954    -5.9435 C.ar    
  47 C47            8.3671     3.2232    -8.9496 C.2     
  48 O48            9.2599     2.7925    -9.6484 O.2     
  49 N49            9.8971     4.9800    -8.2700 N.am    
  50 C50            8.4853     4.5946    -8.3362 C.3     
  51 C51            7.7207     5.6046    -9.1943 C.3     
  52 C52            7.7081     6.9435    -8.5027 C.ar    
  53 C53            8.7204     7.8541    -8.7432 C.ar    
  54 C54            8.7114     9.0819    -8.1101 C.ar    
  55 C55            7.6851     9.4012    -7.2328 C.ar    
  56 O56            7.6738    10.6086    -6.6092 O.3     
  57 C57            6.6703     8.4860    -6.9936 C.ar    
  58 C58            6.6812     7.2615    -7.6332 C.ar    
  59 C59            7.1601     1.0115   -10.6671 C.2     
  60 O60            7.3694     2.0160   -11.3138 O.2     
  61 N61            7.2693     2.4753    -8.7216 N.am    
  62 C62            7.0708     1.0876    -9.1647 C.3     
  63 C63            5.6641     0.6550    -8.7000 C.3     
  64 C64            4.9281     2.0083    -8.5144 C.3     
  65 C65            6.0714     2.9111    -7.9811 C.3     
  66 C66            6.8895    -1.6722   -13.1966 C.2     
  67 O67            6.6906    -2.5409   -12.3739 O.2     
  68 N68            7.0074    -0.1728   -11.2922 N.am    
  69 C69            7.0942    -0.2467   -12.7527 C.3     
  70 C70            7.3941    -3.5784   -16.2747 C.2     
  71 O71            7.9774    -2.6614   -16.8130 O.2     
  72 N72            6.9274    -1.9818   -14.5078 N.am    
  73 C73            6.7284    -3.3676   -14.9393 C.3     
  74 C74            5.2304    -3.6522   -15.0656 C.3     
  75 C75            4.5756    -3.5599   -13.6859 C.3     
  76 C76            3.1002    -3.8403   -13.8102 C.2     
  77 O77            2.6214    -4.0885   -14.8915 O.2     
  78 O78            2.3178    -3.8143   -12.7198 O.3     
  79 C79            7.3161    -6.1300   -18.8913 C.2     
  80 O80            6.3877    -6.7131   -18.3727 O.2     
  81 N81            7.3413    -4.7860   -16.8709 N.am    
  82 C82            7.9885    -4.9910   -18.1691 C.3     
  83 C83            9.4663    -5.3242   -17.9552 C.3     
  84 C84           10.1763    -4.1193   -17.3348 C.3     
  85 C85           11.6319    -4.4475   -17.1242 C.2     
  86 O86           12.0594    -5.5379   -17.4393 O.2     
  87 N87           12.4587    -3.5294   -16.5857 N.am    
  88 C88            8.0590    -8.2212   -21.7961 C.2     
  89 O89            9.0360    -7.5985   -22.1549 O.2     
  90 N90            7.7464    -6.5006   -20.1136 N.am    
  91 C91            7.0928    -7.6079   -20.8157 C.3     
  92 C92            5.8678    -7.0829   -21.5673 C.3     
  93 C93            8.6046    -9.3300   -24.5838 C.2     
  94 O94            7.9807    -8.2910   -24.6300 O.2     
  95 N95            7.8374    -9.4616   -22.2743 N.am    
  96 C96            8.6336   -10.1354   -23.3104 C.3     
  97 C97            7.9956   -11.5199   -23.5505 C.3     
  98 C98            6.5424   -11.3256   -23.0429 C.3     
  99 C99            6.7603   -10.3700   -21.8405 C.3     
 100 C100           9.4969    -9.8901   -28.0843 C.2     
 101 O101           9.7335   -11.0655   -27.9019 O.2     
 102 N102           9.2720    -9.7643   -25.6712 N.am    
 103 C103           9.2437    -8.9813   -26.9091 C.3     
 104 C104          10.3280    -7.9031   -26.8554 C.3     
 105 C105          10.0028    -6.9080   -25.7396 C.3     
 106 C106          11.6833    -8.5562   -26.5774 C.3     
 107 C107          10.2865    -9.4000   -31.6197 C.2     
 108 O108          10.3293    -8.1938   -31.5004 O.2     
 109 N109           9.4603    -9.3967   -29.3379 N.am    
 110 C110           9.8103   -10.2541   -30.4731 C.3     
 111 C111           8.5793   -11.0518   -30.9082 C.3     
 112 C112           8.1705   -12.0103   -29.7879 C.3     
 113 C113           6.9581   -12.7960   -30.2165 C.2     
 114 O114           6.4709   -12.6086   -31.3062 O.2     
 115 O115           6.4193   -13.7040   -29.3877 O.3     
 116 C116          10.9055    -9.8787   -35.1905 C.2     
 117 O117          10.4093   -10.9854   -35.1851 O.2     
 118 N118          10.6648    -9.9765   -32.7777 N.am    
 119 C119          11.1277    -9.1462   -33.8924 C.3     
 120 C120          12.6191    -8.8501   -33.7227 C.3     
 121 C121          12.8307    -7.9991   -32.4689 C.3     
 122 C122          14.2997    -7.7074   -32.3018 C.2     
 123 O123          15.0958    -8.1362   -33.1032 O.2     
 124 O124          14.7238    -6.9712   -31.2626 O.3     
 125 C125          12.0134    -9.5097   -38.6546 C.2     
 126 O126          12.8077    -8.6396   -38.3665 O.2     
 127 N127          11.2582    -9.3040   -36.3575 N.am    
 128 C128          11.0422   -10.0161   -37.6194 C.3     
 129 C129           9.6106    -9.7753   -38.1023 C.3     
 130 C130           8.6263   -10.4000   -37.1115 C.3     
 131 C131           7.1952   -10.0531   -37.5268 C.3     
 132 C132           8.8019   -11.9199   -37.1077 C.3     
 133 C133          12.3752    -9.7614   -42.2834 C.2     
 134 O134          11.2888   -10.2850   -42.4115 O.2     
 135 N135          11.9992   -10.0237   -39.9004 N.am    
 136 C136          12.9433    -9.5314   -40.9067 C.3     
 137 C137          14.2703   -10.2806   -40.7707 C.3     
 138 C138          14.9079    -9.9477   -39.4204 C.3     
 139 C139          16.2150   -10.6858   -39.2865 C.2     
 140 O140          16.5973   -11.4043   -40.1795 O.2     
 141 O141          16.9545   -10.5449   -38.1752 O.3     
 142 C142          13.6471    -9.6969   -45.7100 C.2     
 143 O143          14.7967    -9.5840   -45.3405 O.2     
 144 N144          13.0746    -9.3853   -43.3724 N.am    
 145 C145          12.5224    -9.6089   -44.7108 C.3     
 146 C146          11.5997    -8.4464   -45.0826 C.3     
 147 C147          10.3920    -8.4334   -44.1435 C.3     
 148 C148           9.4693    -7.2709   -44.5153 C.3     
 149 N149           8.3129    -7.2584   -43.6160 N.pl3   
 150 C150           7.3410    -6.2966   -43.7594 C.2     
 151 N151           6.3121    -6.2855   -42.9593 N.2     
 152 N152           7.4544    -5.3465   -44.7466 N.pl3   
 153 C153          13.9586    -9.6046   -49.3511 C.2     
 154 O154          12.7962    -9.2916   -49.4984 O.2     
 155 N155          13.3754    -9.9012   -47.0142 N.am    
 156 C156          14.4688    -9.9868   -47.9855 C.3     
 157 C157          15.0057   -11.4190   -48.0241 C.3     
 158 C158          15.6268   -11.7586   -46.6937 C.ar    
 159 C159          14.8552   -12.3209   -45.6941 C.ar    
 160 C160          15.4249   -12.6324   -44.4737 C.ar    
 161 C161          16.7664   -12.3820   -44.2531 C.ar    
 162 C162          17.5382   -11.8204   -45.2531 C.ar    
 163 C163          16.9695   -11.5130   -46.4749 C.ar    
 164 C164          13.6790   -10.6091   -52.3187 C.2     
 165 O165          13.6857   -11.6295   -51.6633 O.2     
 166 N166          14.7942    -9.6107   -50.4086 N.am    
 167 C167          14.2759    -9.3463   -51.7531 C.3     
 168 C168          15.4172    -8.8729   -52.6556 C.3     
 169 C169          15.9358    -7.5488   -52.1569 C.2     
 170 O170          15.5010    -7.0758   -51.1282 O.2     
 171 N171          16.8828    -6.8902   -52.8540 N.am    
 172 C172          13.4635   -12.6952   -54.7413 C.2     
 173 O173          14.6295   -12.3663   -54.7975 O.2     
 174 N174          13.1376   -10.6045   -53.5529 N.am    
 175 C175          12.4602   -11.8004   -54.0601 C.3     
 176 C176          11.3807   -11.3884   -55.0630 C.3     
 177 C177          10.3159   -10.5905   -54.3554 C.2     
 178 O178          10.3567   -10.4594   -53.1504 O.2     
 179 N179           9.3184   -10.0225   -55.0617 N.am    
 180 C180          13.3360   -15.5936   -56.9652 C.2     
 181 O181          12.1375   -15.4921   -57.1202 O.2     
 182 N182          13.0650   -13.8609   -55.2879 N.am    
 183 C183          14.0403   -14.7307   -55.9501 C.3     
 184 C184          14.7201   -15.6208   -54.9078 C.3     
 185 C185          13.6664   -16.4787   -54.2046 C.3     
 186 C186          14.3577   -17.4564   -53.2520 C.3     
 187 C187          15.4351   -14.7446   -53.8773 C.3     
 188 C188          14.1439   -18.6596   -58.7588 C.2     
 189 O189          15.3160   -18.6753   -58.4475 O.2     
 190 N190          14.0381   -16.4782   -57.7007 N.am    
 191 C191          13.3410   -17.3932   -58.6079 C.3     
 192 C192          13.1762   -16.7279   -59.9758 C.3     
 193 C193          12.4234   -17.6725   -60.9149 C.3     
 194 C194          10.9792   -17.8262   -60.4335 C.3     
 195 C195          12.4299   -17.0951   -62.3318 C.3     
 196 C196          13.7013   -21.8391   -60.5074 C.2     
 197 O197          12.6711   -21.4715   -61.0314 O.2     
 198 N198          13.5594   -19.7748   -59.2395 N.am    
 199 C199          14.3557   -20.9861   -59.4514 C.3     
 200 C200          14.4445   -21.7735   -58.1426 C.3     
 201 C201          15.2192   -20.9558   -57.1071 C.3     
 202 C202          15.2013   -21.6867   -55.7631 C.3     
 203 C203          16.6659   -20.7814   -57.5735 C.3     
 204 C204          14.0297   -25.2784   -61.7020 C.2     
 205 O205          14.7763   -25.5811   -60.7955 O.2     
 206 N206          14.2608   -23.0106   -60.8695 N.am    
 207 C207          13.6246   -23.8399   -61.8961 C.3     
 208 C208          14.0696   -23.3672   -63.2815 C.3     
 209 C209          13.5505   -21.9491   -63.5277 C.3     
 210 C210          13.9888   -21.4836   -64.8923 C.2     
 211 O211          14.6512   -22.2140   -65.5984 O.2     
 212 N212          13.6447   -20.2555   -65.3280 N.am    
 213 C213          15.2736   -27.8750   -63.0355 C.2     
 214 O214          15.8268   -26.9759   -63.6234 O.2     
 215 N215          13.5623   -26.2285   -62.5359 N.am    
 216 C216          13.9562   -27.6269   -62.3472 C.3     
 217 C217          12.8872   -28.5430   -62.9463 C.3     
 218 C218          11.6009   -28.3839   -62.1774 C.ar    
 219 C219          10.6762   -27.4333   -62.5686 C.ar    
 220 C220           9.4965   -27.2852   -61.8652 C.ar    
 221 C221           9.2398   -28.0915   -60.7657 C.ar    
 222 O222           8.0799   -27.9479   -60.0724 O.3     
 223 C223          10.1691   -29.0448   -60.3756 C.ar    
 224 C224          11.3450   -29.1925   -61.0855 C.ar    
 225 O225          15.8325   -29.0947   -62.9956 O.3     
 226 H226          26.7039    12.9688   -10.0975 H       
 227 H227          26.1704    13.0351    -8.5237 H       
 228 H228          24.6444    13.9365   -10.8789 H       
 229 H229          25.4954    15.0204    -9.7523 H       
 230 H230          21.8599    15.2274    -7.2086 H       
 231 H231          19.6905    15.9687    -8.7872 H       
 232 H232          20.9408    17.1245    -8.2212 H       
 233 H233          20.7817    15.6561   -10.9139 H       
 234 H234          21.1386    17.3889   -10.6065 H       
 235 H235          23.3220    16.9030    -9.7152 H       
 236 H236          23.1962    15.6833   -11.0196 H       
 237 H237          19.3217    14.3446    -7.1214 H       
 238 H238          18.9830    11.9700    -8.7871 H       
 239 H239          18.9225    10.4037    -6.9066 H       
 240 H240          20.5001    11.2276    -6.9272 H       
 241 H241          19.5170    11.2420    -4.7503 H       
 242 H242          16.8138    10.7559    -7.8050 H       
 243 H243          15.1175    12.6568    -6.3583 H       
 244 H244          13.2815    12.2933    -8.1215 H       
 245 H245          14.6167    13.3728    -8.5905 H       
 246 H246          15.7428    11.3417    -9.6437 H       
 247 H247          12.9999    10.1674    -9.0242 H       
 248 H248          14.1217     9.4661   -10.2150 H       
 249 H249          14.5851     9.5518    -8.4986 H       
 250 H250          14.5133    13.0312   -10.9788 H       
 251 H251          14.3004    11.4005   -11.6598 H       
 252 H252          12.9952    12.1433   -10.7043 H       
 253 H253          13.2619     8.9936    -4.6353 H       
 254 H254          10.5180     9.3112    -4.9793 H       
 255 H255          11.4562    10.1479    -3.6992 H       
 256 H256          10.6472    11.2031    -6.4676 H       
 257 H257          10.5351    12.0339    -4.8796 H       
 258 H258          12.9206    12.3256    -4.7309 H       
 259 H259          12.6472    12.5601    -6.4845 H       
 260 H260          11.7908     6.9985    -5.2882 H       
 261 H261          12.0626     6.7124    -8.2342 H       
 262 H262          12.3670     4.6410    -6.0144 H       
 263 H263          12.4152     4.2756    -7.7558 H       
 264 H264          14.6284     4.8815    -9.0494 H       
 265 H265          16.9212     5.7340    -8.3395 H       
 266 H266          18.1393     6.8524    -5.9892 H       
 267 H267          17.5833     7.4827    -3.6834 H       
 268 H268          15.3049     7.1666    -2.8164 H       
 269 H269          13.5584     6.2179    -4.2390 H       
 270 H270          10.5358     4.5898    -8.8870 H       
 271 H271           8.0649     4.5803    -7.3306 H       
 272 H272           8.2092     5.7011   -10.1639 H       
 273 H273           6.6966     5.2593    -9.3361 H       
 274 H274           9.5191     7.6051    -9.4262 H       
 275 H275           9.5027     9.7925    -8.2977 H       
 276 H276           7.2049    11.2991    -7.0975 H       
 277 H277           5.8705     8.7320    -6.3108 H       
 278 H278           5.8891     6.5504    -7.4506 H       
 279 H279           7.8265     0.4432    -8.7155 H       
 280 H280           5.1743     0.0513    -9.4639 H       
 281 H281           5.7195     0.1134    -7.7557 H       
 282 H282           4.5449     2.3782    -9.4653 H       
 283 H283           4.1275     1.9200    -7.7800 H       
 284 H284           6.2106     2.7585    -6.9108 H       
 285 H285           5.8560     3.9588    -8.1909 H       
 286 H286           6.8400    -0.9761   -10.7750 H       
 287 H287           8.0768     0.0970   -13.0761 H       
 288 H288           6.3244     0.3857   -13.1950 H       
 289 H289           7.0865    -1.2870   -15.1658 H       
 290 H290           7.1659    -4.0433   -14.2045 H       
 291 H291           4.7763    -2.9198   -15.7330 H       
 292 H292           5.0837    -4.6533   -15.4711 H       
 293 H293           5.0297    -4.2924   -13.0185 H       
 294 H294           4.7223    -2.5589   -13.2803 H       
 295 H295           1.3778    -4.0006   -12.8494 H       
 296 H296           6.8748    -5.5194   -16.4403 H       
 297 H297           7.9034    -4.0822   -18.7649 H       
 298 H298           9.5526    -6.1807   -17.2866 H       
 299 H299           9.9272    -5.5636   -18.9136 H       
 300 H300          10.0900    -3.2628   -18.0035 H       
 301 H301           9.7154    -3.8799   -16.3765 H       
 302 H302          12.1168    -2.6574   -16.3337 H       
 303 H303          13.3956    -3.7407   -16.4501 H       
 304 H304           8.4889    -6.0342   -20.5284 H       
 305 H305           6.7802    -8.3621   -20.0934 H       
 306 H306           5.4348    -7.8868   -22.1626 H       
 307 H307           5.1291    -6.7226   -20.8513 H       
 308 H308           6.1669    -6.2655   -22.2233 H       
 309 H309           9.6623   -10.2528   -22.9696 H       
 310 H310           8.0034   -11.7694   -24.6115 H       
 311 H311           8.5079   -12.2866   -22.9692 H       
 312 H312           5.9202   -10.8609   -23.8079 H       
 313 H313           6.1133   -12.2723   -22.7146 H       
 314 H314           7.0693   -10.9308   -20.9584 H       
 315 H315           5.8499    -9.8074   -21.6338 H       
 316 H316           9.7710   -10.5952   -25.6343 H       
 317 H317           8.2672    -8.5094   -27.0184 H       
 318 H318          10.3664    -7.3786   -27.8102 H       
 319 H319          10.0760    -7.4082   -24.7740 H       
 320 H320          10.7103    -6.0795   -25.7741 H       
 321 H321           8.9906    -6.5273   -25.8758 H       
 322 H322          11.9150    -9.2651   -27.3723 H       
 323 H323          12.4558    -7.7880   -26.5391 H       
 324 H324          11.6449    -9.0806   -25.6226 H       
 325 H325           9.2023    -8.4739   -29.4886 H       
 326 H326          10.6031   -10.9415   -30.1783 H       
 327 H327           7.7579   -10.3667   -31.1180 H       
 328 H328           8.8150   -11.6224   -31.8066 H       
 329 H329           8.9919   -12.6954   -29.5781 H       
 330 H330           7.9348   -11.4397   -28.8896 H       
 331 H331           5.6424   -14.1832   -29.7067 H       
 332 H332          10.6305   -10.9412   -32.8731 H       
 333 H333          10.5703    -8.2096   -33.9037 H       
 334 H334          13.1665    -9.7873   -33.6223 H       
 335 H335          12.9836    -8.3082   -34.5954 H       
 336 H336          12.2833    -7.0618   -32.5693 H       
 337 H337          12.4663    -8.5410   -31.5962 H       
 338 H338          15.6752    -6.8107   -31.1974 H       
 339 H339          11.6551    -8.4189   -36.3618 H       
 340 H340          11.1991   -11.0837   -37.4656 H       
 341 H341           9.4257    -8.7033   -38.1711 H       
 342 H342           9.4766   -10.2308   -39.0835 H       
 343 H343           8.8194   -10.0095   -36.1123 H       
 344 H344           7.0020   -10.4437   -38.5259 H       
 345 H345           6.4940   -10.4982   -36.8209 H       
 346 H346           7.0700    -8.9703   -37.5295 H       
 347 H347           8.6088   -12.3105   -38.1068 H       
 348 H348           9.8215   -12.1671   -36.8118 H       
 349 H349           8.1007   -12.3650   -36.4018 H       
 350 H350          11.3639   -10.7195   -40.1307 H       
 351 H351          13.1111    -8.4649   -40.7564 H       
 352 H352          14.0896   -11.3538   -40.8325 H       
 353 H353          14.9421    -9.9785   -41.5741 H       
 354 H354          15.0886    -8.8746   -39.3586 H       
 355 H355          14.2361   -10.2499   -38.6170 H       
 356 H356          17.7852   -11.0382   -38.1351 H       
 357 H357          13.9435    -8.9665   -43.2700 H       
 358 H358          11.9554   -10.5398   -44.7191 H       
 359 H359          12.1435    -7.5064   -44.9883 H       
 360 H360          11.2591    -8.5675   -46.1109 H       
 361 H361           9.8482    -9.3733   -44.2378 H       
 362 H362          10.7326    -8.3123   -43.1152 H       
 363 H363          10.0131    -6.3309   -44.4210 H       
 364 H364           9.1287    -7.3919   -45.5436 H       
 365 H365           8.2329    -7.9287   -42.9195 H       
 366 H366           5.6264    -5.6069   -43.0604 H       
 367 H367           8.2201    -5.3548   -45.3420 H       
 368 H368           6.7687    -4.6680   -44.8477 H       
 369 H369          12.4560    -9.9915   -47.3097 H       
 370 H370          15.2687    -9.3066   -47.6930 H       
 371 H371          14.1870   -12.1085   -48.2294 H       
 372 H372          15.7578   -11.5040   -48.8085 H       
 373 H373          13.8072   -12.5166   -45.8664 H       
 374 H374          14.8219   -13.0711   -43.6925 H       
 375 H375          17.2113   -12.6247   -43.2994 H       
 376 H376          18.5862   -11.6245   -45.0806 H       
 377 H377          17.5733   -11.0777   -47.2574 H       
 378 H378          15.7386    -9.7902   -50.2795 H       
 379 H379          13.5091    -8.5733   -51.7014 H       
 380 H380          16.2220    -9.6078   -52.6393 H       
 381 H381          15.0502    -8.7586   -53.6756 H       
 382 H382          17.2305    -7.2685   -53.6767 H       
 383 H383          17.2166    -6.0379   -52.5329 H       
 384 H384          13.1964    -9.8094   -54.1054 H       
 385 H385          11.9997   -12.3366   -53.2303 H       
 386 H386          11.8282   -10.7804   -55.8492 H       
 387 H387          10.9342   -12.2802   -55.5031 H       
 388 H388           9.2858   -10.1274   -56.0255 H       
 389 H389           8.6331    -9.5089   -54.6063 H       
 390 H390          12.1324   -14.1239   -55.2429 H       
 391 H391          14.7909   -14.1195   -56.4511 H       
 392 H392          15.4458   -16.2679   -55.4005 H       
 393 H393          12.9926   -15.8353   -53.6388 H       
 394 H394          13.0972   -17.0368   -54.9479 H       
 395 H395          13.6070   -18.0676   -52.7510 H       
 396 H396          15.0315   -18.0998   -53.8178 H       
 397 H397          14.9269   -16.8982   -52.5087 H       
 398 H398          15.9195   -15.3788   -53.1348 H       
 399 H399          16.1858   -14.1334   -54.3783 H       
 400 H400          14.7095   -14.0975   -53.3846 H       
 401 H401          15.0050   -16.5091   -57.6294 H       
 402 H402          12.3591   -17.6320   -58.1993 H       
 403 H403          12.6127   -15.8016   -59.8638 H       
 404 H404          14.1586   -16.5073   -60.3933 H       
 405 H405          12.9112   -18.6472   -60.9176 H       
 406 H406          10.4590   -18.5434   -61.0684 H       
 407 H407          10.9756   -18.1831   -59.4036 H       
 408 H408          10.4743   -16.8617   -60.4856 H       
 409 H409          13.4587   -16.9855   -62.6747 H       
 410 H410          11.8936   -17.7680   -63.0009 H       
 411 H411          11.9421   -16.1203   -62.3292 H       
 412 H412          12.6114   -19.7754   -59.4452 H       
 413 H413          15.3582   -20.7094   -59.7778 H       
 414 H414          13.4399   -21.9735   -57.7700 H       
 415 H415          14.9606   -22.7170   -58.3205 H       
 416 H416          14.7532   -19.9769   -56.9946 H       
 417 H417          15.6673   -22.6656   -55.8756 H       
 418 H418          15.7531   -21.1042   -55.0254 H       
 419 H419          14.1706   -21.8109   -55.4308 H       
 420 H420          17.1319   -21.7603   -57.6860 H       
 421 H421          16.6786   -20.2607   -58.5311 H       
 422 H422          17.2177   -20.1989   -56.8358 H       
 423 H423          15.0847   -23.3046   -60.4505 H       
 424 H424          12.5412   -23.7532   -61.8133 H       
 425 H425          15.1583   -23.3697   -63.3339 H       
 426 H426          13.6677   -24.0381   -64.0408 H       
 427 H427          12.4617   -21.9466   -63.4753 H       
 428 H428          13.9523   -21.2782   -62.7685 H       
 429 H429          13.1149   -19.6713   -64.7633 H       
 430 H430          13.9268   -19.9558   -66.2064 H       
 431 H431          12.9652   -25.9864   -63.2609 H       
 432 H432          14.0578   -27.8352   -61.2821 H       
 433 H433          12.7223   -28.2750   -63.9898 H       
 434 H434          13.2210   -29.5789   -62.8856 H       
 435 H435          10.8764   -26.8059   -63.4245 H       
 436 H436           8.7748   -26.5421   -62.1706 H       
 437 H437           7.3561   -28.5005   -60.3979 H       
 438 H438           9.9718   -29.6734   -59.5198 H       
 439 H439          12.0668   -29.9375   -60.7848 H       
 440 H440          16.6779   -29.2054   -63.4518 H       
@<TRIPOS>BOND
   1    1    2 2
   2    1    4 1
   3    1    7 am
   4    3    4 1
   5    3  226 1
   6    3  227 1
   7    4  228 1
   8    4  229 1
   9    5    6 2
  10    5   14 am
  11    5    8 1
  12    7    8 1
  13    7   11 1
  14    8    9 1
  15    8  230 1
  16    9   10 1
  17    9  231 1
  18    9  232 1
  19   10   11 1
  20   10  233 1
  21   10  234 1
  22   11  235 1
  23   11  236 1
  24   12   13 2
  25   12   15 1
  26   12   20 am
  27   14   15 1
  28   14  237 1
  29   15   16 1
  30   15  238 1
  31   16   17 1
  32   16  239 1
  33   16  240 1
  34   17  241 1
  35   18   19 2
  36   18   21 1
  37   18   28 am
  38   20   21 1
  39   20  242 1
  40   21   22 1
  41   21  243 1
  42   22   23 1
  43   22  244 1
  44   22  245 1
  45   23   24 1
  46   23   25 1
  47   23  246 1
  48   24  247 1
  49   24  248 1
  50   24  249 1
  51   25  250 1
  52   25  251 1
  53   25  252 1
  54   26   27 2
  55   26   35 am
  56   26   29 1
  57   28   29 1
  58   28   32 1
  59   29   30 1
  60   29  253 1
  61   30   31 1
  62   30  254 1
  63   30  255 1
  64   31   32 1
  65   31  256 1
  66   31  257 1
  67   32  258 1
  68   32  259 1
  69   33   34 2
  70   33   36 1
  71   33   49 am
  72   35   36 1
  73   35  260 1
  74   36   37 1
  75   36  261 1
  76   37   38 1
  77   37  262 1
  78   37  263 1
  79   38   39 2
  80   38   46 1
  81   39   40 1
  82   39  264 1
  83   40   41 1
  84   40  265 1
  85   41   42 ar
  86   41   46 ar
  87   42   43 ar
  88   42  266 1
  89   43   44 ar
  90   43  267 1
  91   44   45 ar
  92   44  268 1
  93   45   46 ar
  94   45  269 1
  95   47   48 2
  96   47   50 1
  97   47   61 am
  98   49   50 1
  99   49  270 1
 100   50   51 1
 101   50  271 1
 102   51   52 1
 103   51  272 1
 104   51  273 1
 105   52   53 ar
 106   52   58 ar
 107   53   54 ar
 108   53  274 1
 109   54   55 ar
 110   54  275 1
 111   55   56 1
 112   55   57 ar
 113   56  276 1
 114   57   58 ar
 115   57  277 1
 116   58  278 1
 117   59   60 2
 118   59   68 am
 119   59   62 1
 120   61   62 1
 121   61   65 1
 122   62   63 1
 123   62  279 1
 124   63   64 1
 125   63  280 1
 126   63  281 1
 127   64   65 1
 128   64  282 1
 129   64  283 1
 130   65  284 1
 131   65  285 1
 132   66   67 2
 133   66   69 1
 134   66   72 am
 135   68   69 1
 136   68  286 1
 137   69  287 1
 138   69  288 1
 139   70   71 2
 140   70   73 1
 141   70   81 am
 142   72   73 1
 143   72  289 1
 144   73   74 1
 145   73  290 1
 146   74   75 1
 147   74  291 1
 148   74  292 1
 149   75   76 1
 150   75  293 1
 151   75  294 1
 152   76   77 2
 153   76   78 1
 154   78  295 1
 155   79   80 2
 156   79   82 1
 157   79   90 am
 158   81   82 1
 159   81  296 1
 160   82   83 1
 161   82  297 1
 162   83   84 1
 163   83  298 1
 164   83  299 1
 165   84   85 1
 166   84  300 1
 167   84  301 1
 168   85   86 2
 169   85   87 am
 170   87  302 1
 171   87  303 1
 172   88   89 2
 173   88   91 1
 174   88   95 am
 175   90   91 1
 176   90  304 1
 177   91   92 1
 178   91  305 1
 179   92  306 1
 180   92  307 1
 181   92  308 1
 182   93   94 2
 183   93  102 am
 184   93   96 1
 185   95   96 1
 186   95   99 1
 187   96   97 1
 188   96  309 1
 189   97   98 1
 190   97  310 1
 191   97  311 1
 192   98   99 1
 193   98  312 1
 194   98  313 1
 195   99  314 1
 196   99  315 1
 197  100  101 2
 198  100  103 1
 199  100  109 am
 200  102  103 1
 201  102  316 1
 202  103  104 1
 203  103  317 1
 204  104  105 1
 205  104  106 1
 206  104  318 1
 207  105  319 1
 208  105  320 1
 209  105  321 1
 210  106  322 1
 211  106  323 1
 212  106  324 1
 213  107  108 2
 214  107  110 1
 215  107  118 am
 216  109  110 1
 217  109  325 1
 218  110  111 1
 219  110  326 1
 220  111  112 1
 221  111  327 1
 222  111  328 1
 223  112  113 1
 224  112  329 1
 225  112  330 1
 226  113  114 2
 227  113  115 1
 228  115  331 1
 229  116  117 2
 230  116  119 1
 231  116  127 am
 232  118  119 1
 233  118  332 1
 234  119  120 1
 235  119  333 1
 236  120  121 1
 237  120  334 1
 238  120  335 1
 239  121  122 1
 240  121  336 1
 241  121  337 1
 242  122  123 2
 243  122  124 1
 244  124  338 1
 245  125  126 2
 246  125  128 1
 247  125  135 am
 248  127  128 1
 249  127  339 1
 250  128  129 1
 251  128  340 1
 252  129  130 1
 253  129  341 1
 254  129  342 1
 255  130  131 1
 256  130  132 1
 257  130  343 1
 258  131  344 1
 259  131  345 1
 260  131  346 1
 261  132  347 1
 262  132  348 1
 263  132  349 1
 264  133  134 2
 265  133  136 1
 266  133  144 am
 267  135  136 1
 268  135  350 1
 269  136  137 1
 270  136  351 1
 271  137  138 1
 272  137  352 1
 273  137  353 1
 274  138  139 1
 275  138  354 1
 276  138  355 1
 277  139  140 2
 278  139  141 1
 279  141  356 1
 280  142  143 2
 281  142  145 1
 282  142  155 am
 283  144  145 1
 284  144  357 1
 285  145  146 1
 286  145  358 1
 287  146  147 1
 288  146  359 1
 289  146  360 1
 290  147  148 1
 291  147  361 1
 292  147  362 1
 293  148  149 1
 294  148  363 1
 295  148  364 1
 296  149  150 1
 297  149  365 1
 298  150  151 2
 299  150  152 1
 300  151  366 1
 301  152  367 1
 302  152  368 1
 303  153  154 2
 304  153  156 1
 305  153  166 am
 306  155  156 1
 307  155  369 1
 308  156  157 1
 309  156  370 1
 310  157  158 1
 311  157  371 1
 312  157  372 1
 313  158  159 ar
 314  158  163 ar
 315  159  160 ar
 316  159  373 1
 317  160  161 ar
 318  160  374 1
 319  161  162 ar
 320  161  375 1
 321  162  163 ar
 322  162  376 1
 323  163  377 1
 324  164  165 2
 325  164  167 1
 326  164  174 am
 327  166  167 1
 328  166  378 1
 329  167  168 1
 330  167  379 1
 331  168  169 1
 332  168  380 1
 333  168  381 1
 334  169  170 2
 335  169  171 am
 336  171  382 1
 337  171  383 1
 338  172  173 2
 339  172  175 1
 340  172  182 am
 341  174  175 1
 342  174  384 1
 343  175  176 1
 344  175  385 1
 345  176  177 1
 346  176  386 1
 347  176  387 1
 348  177  178 2
 349  177  179 am
 350  179  388 1
 351  179  389 1
 352  180  181 2
 353  180  183 1
 354  180  190 am
 355  182  183 1
 356  182  390 1
 357  183  184 1
 358  183  391 1
 359  184  185 1
 360  184  187 1
 361  184  392 1
 362  185  186 1
 363  185  393 1
 364  185  394 1
 365  186  395 1
 366  186  396 1
 367  186  397 1
 368  187  398 1
 369  187  399 1
 370  187  400 1
 371  188  189 2
 372  188  191 1
 373  188  198 am
 374  190  191 1
 375  190  401 1
 376  191  192 1
 377  191  402 1
 378  192  193 1
 379  192  403 1
 380  192  404 1
 381  193  194 1
 382  193  195 1
 383  193  405 1
 384  194  406 1
 385  194  407 1
 386  194  408 1
 387  195  409 1
 388  195  410 1
 389  195  411 1
 390  196  197 2
 391  196  199 1
 392  196  206 am
 393  198  199 1
 394  198  412 1
 395  199  200 1
 396  199  413 1
 397  200  201 1
 398  200  414 1
 399  200  415 1
 400  201  202 1
 401  201  203 1
 402  201  416 1
 403  202  417 1
 404  202  418 1
 405  202  419 1
 406  203  420 1
 407  203  421 1
 408  203  422 1
 409  204  205 2
 410  204  207 1
 411  204  215 am
 412  206  207 1
 413  206  423 1
 414  207  208 1
 415  207  424 1
 416  208  209 1
 417  208  425 1
 418  208  426 1
 419  209  210 1
 420  209  427 1
 421  209  428 1
 422  210  211 2
 423  210  212 am
 424  212  429 1
 425  212  430 1
 426  213  214 2
 427  213  216 1
 428  213  225 1
 429  215  216 1
 430  215  431 1
 431  216  217 1
 432  216  432 1
 433  217  218 1
 434  217  433 1
 435  217  434 1
 436  218  219 ar
 437  218  224 ar
 438  219  220 ar
 439  219  435 1
 440  220  221 ar
 441  220  436 1
 442  221  222 1
 443  221  223 ar
 444  222  437 1
 445  223  224 ar
 446  223  438 1
 447  224  439 1
 448  225  440 1

#	End of record

