#	Name: ASD01901019
#	Creating user name:	WinNT
#	Creation time:	15. 06. 2019 19:53

#	Modifying user name:	WinNT
#	Modification time:	15. 06. 2019 19:53

#	Program:	/corina/corina34_cracker 3.40 0067  02.08.2006

@<TRIPOS>MOLECULE
ASD01901019
  28   29    0    0    0
SMALL
NO_CHARGES


@<TRIPOS>ATOM
   1 C1            -0.0159     1.3209     0.0093 C.ar    
   2 N2             0.0021    -0.0041     0.0020 N.ar    
   3 C3             1.1479    -0.6646    -0.0124 C.ar    
   4 C4             2.3381     0.0462    -0.0200 C.ar    
   5 C5             2.2829     1.4309    -0.0120 C.ar    
   6 N6             1.1033     2.0297     0.0024 N.ar    
   7 N7            -1.2329     1.9800     0.0186 N.pl3   
   8 C8             1.1594    -2.1715    -0.0202 C.3     
   9 C9             0.3475    -2.6938     1.1668 C.3     
  10 C10            0.3591    -4.2007     1.1591 C.ar    
  11 C11            1.3516    -4.8878     1.8327 C.ar    
  12 C12            1.3622    -6.2701     1.8256 C.ar    
  13 C13            0.3800    -6.9653     1.1453 C.ar    
  14 C14           -0.6130    -6.2783     0.4724 C.ar    
  15 C15           -0.6261    -4.8960     0.4831 C.ar    
  16 H16            3.2877    -0.4681    -0.0314 H       
  17 H17            3.1918     2.0141    -0.0175 H       
  18 H18           -2.0594     1.4723     0.0197 H       
  19 H19           -1.2593     2.9496     0.0240 H       
  20 H20            0.7189    -2.5335    -0.9491 H       
  21 H21            2.1868    -2.5274     0.0576 H       
  22 H22            0.7880    -2.3318     2.0958 H       
  23 H23           -0.6798    -2.3379     1.0890 H       
  24 H24            2.1190    -4.3446     2.3642 H       
  25 H25            2.1381    -6.8068     2.3512 H       
  26 H26            0.3887    -8.0453     1.1391 H       
  27 H27           -1.3802    -6.8215    -0.0594 H       
  28 H28           -1.4041    -4.3593    -0.0394 H       
@<TRIPOS>BOND
   1    1    2 ar
   2    1    6 ar
   3    1    7 1
   4    2    3 ar
   5    3    4 ar
   6    3    8 1
   7    4    5 ar
   8    4   16 1
   9    5    6 ar
  10    5   17 1
  11    7   18 1
  12    7   19 1
  13    8    9 1
  14    8   20 1
  15    8   21 1
  16    9   10 1
  17    9   22 1
  18    9   23 1
  19   10   11 ar
  20   10   15 ar
  21   11   12 ar
  22   11   24 1
  23   12   13 ar
  24   12   25 1
  25   13   14 ar
  26   13   26 1
  27   14   15 ar
  28   14   27 1
  29   15   28 1

#	End of record

