#	Name: ASD05250065
#	Creating user name:	WinNT
#	Creation time:	15. 06. 2019 20:58

#	Modifying user name:	WinNT
#	Modification time:	15. 06. 2019 20:58

#	Program:	/corina/corina34_cracker 3.40 0067  02.08.2006

@<TRIPOS>MOLECULE
ASD05250065
  42   45    0    0    0
SMALL
NO_CHARGES


@<TRIPOS>ATOM
   1 C1             0.0370     1.0723     0.0520 C.ar    
   2 C2            -0.0747    -0.3034     0.2594 C.ar    
   3 C3            -1.2941    -0.9044     0.3238 C.ar    
   4 C4            -2.4610    -0.1335     0.1800 C.ar    
   5 C5            -2.3483     1.2654    -0.0309 C.ar    
   6 C6            -1.0730     1.8522    -0.0862 C.ar    
   7 N7            -3.6699    -0.7025     0.2392 N.ar    
   8 C8            -4.7524     0.0404     0.1012 C.ar    
   9 C9            -4.6401     1.4370    -0.1097 C.ar    
  10 N10           -3.4517     2.0090    -0.1694 N.ar    
  11 C11           -5.8625     2.2596    -0.2640 C.ar    
  12 C12           -5.9797     3.4731     0.4131 C.ar    
  13 C13           -7.1206     4.2351     0.2650 C.ar    
  14 C14           -8.1467     3.7975    -0.5531 C.ar    
  15 C15           -8.0364     2.5943    -1.2271 C.ar    
  16 C16           -6.8980     1.8263    -1.0915 C.ar    
  17 C17           -9.3899     4.6345    -0.7105 C.3     
  18 C18           -6.0916    -0.5895     0.1668 C.ar    
  19 C19           -6.3420    -1.7754    -0.5231 C.ar    
  20 C20           -7.5913    -2.3576    -0.4578 C.ar    
  21 C21           -8.5943    -1.7674     0.2901 C.ar    
  22 C22           -8.3522    -0.5908     0.9762 C.ar    
  23 C23           -7.1053    -0.0021     0.9233 C.ar    
  24 C24           -9.9565    -2.4085     0.3572 C.3     
  25 F25            1.2616     1.6399    -0.0072 F       
  26 H26            0.8191    -0.8995     0.3700 H       
  27 H27           -1.3651    -1.9700     0.4844 H       
  28 H28           -0.9720     2.9155    -0.2461 H       
  29 H29           -5.1795     3.8156     1.0524 H       
  30 H30           -7.2127     5.1749     0.7892 H       
  31 H31           -8.8409     2.2577    -1.8641 H       
  32 H32           -6.8129     0.8874    -1.6184 H       
  33 H33           -9.2613     5.3227    -1.5459 H       
  34 H34          -10.2435     3.9846    -0.9032 H       
  35 H35           -9.5643     5.2016     0.2039 H       
  36 H36           -5.5598    -2.2369    -1.1075 H       
  37 H37           -7.7865    -3.2758    -0.9919 H       
  38 H38           -9.1393    -0.1345     1.5582 H       
  39 H39           -6.9172     0.9162     1.4597 H       
  40 H40           -9.9899    -3.1039     1.1959 H       
  41 H41          -10.7146    -1.6374     0.4942 H       
  42 H42          -10.1503    -2.9479    -0.5699 H       
@<TRIPOS>BOND
   1    1    2 ar
   2    1   25 1
   3    1    6 ar
   4    2    3 ar
   5    2   26 1
   6    3    4 ar
   7    3   27 1
   8    4    5 ar
   9    4    7 ar
  10    5    6 ar
  11    5   10 ar
  12    6   28 1
  13    7    8 ar
  14    8    9 ar
  15    8   18 1
  16    9   10 ar
  17    9   11 1
  18   11   12 ar
  19   11   16 ar
  20   12   13 ar
  21   12   29 1
  22   13   14 ar
  23   13   30 1
  24   14   15 ar
  25   14   17 1
  26   15   16 ar
  27   15   31 1
  28   16   32 1
  29   17   33 1
  30   17   34 1
  31   17   35 1
  32   18   19 ar
  33   18   23 ar
  34   19   20 ar
  35   19   36 1
  36   20   21 ar
  37   20   37 1
  38   21   22 ar
  39   21   24 1
  40   22   23 ar
  41   22   38 1
  42   23   39 1
  43   24   40 1
  44   24   41 1
  45   24   42 1

#	End of record

