#	Name: ASD01001191
#	Creating user name:	WinNT
#	Creation time:	15. 06. 2019 18:55

#	Modifying user name:	WinNT
#	Modification time:	15. 06. 2019 18:55

#	Program:	/corina/corina34_cracker 3.40 0067  02.08.2006

@<TRIPOS>MOLECULE
ASD01001191
  50   53    0    0    0
SMALL
NO_CHARGES


@<TRIPOS>ATOM
   1 C1            -0.0167     1.3821     0.0096 C.ar    
   2 C2             1.2723     2.1627     0.0015 C.3     
   3 C3             1.5733     2.6533    -1.4175 C.3     
   4 N4             1.1440     3.3459     0.8646 N.pl3   
   5 C5             1.5944     1.4764    -2.3891 C.3     
   6 C6             2.9171     3.3779    -1.4235 C.3     
   7 C7             2.0705     4.3861     0.7312 C.ar    
   8 C8             2.7736     0.5575    -2.0565 C.3     
   9 C9             2.9341     4.4396    -0.3518 C.ar    
  10 O10            3.9732     2.4498    -1.1639 O.3     
  11 C11            2.1173     5.3777     1.7053 C.ar    
  12 C12            4.0663     1.3781    -2.1027 C.3     
  13 C13            3.8354     5.4842    -0.4593 C.ar    
  14 C14            3.0203     6.4158     1.5919 C.ar    
  15 C15            3.8785     6.4691     0.5091 C.ar    
  16 C16            4.8629     7.6034     0.3849 C.3     
  17 C17            4.5963     8.3703    -0.9119 C.3     
  18 C18            4.7054     8.5483     1.5778 C.3     
  19 C19            6.2865     7.0431     0.3625 C.3     
  20 C20            0.0021    -0.0041     0.0020 C.ar    
  21 C21           -1.2084    -0.6806     0.0104 C.ar    
  22 C22           -2.3848     0.0442     0.0260 C.ar    
  23 N23           -2.3647     1.3629     0.0325 N.ar    
  24 C24           -1.2327     2.0391     0.0306 C.ar    
  25 H25            2.0881     1.5325     0.3556 H       
  26 H26            0.8007     3.3581    -1.7246 H       
  27 H27            0.4279     3.4048     1.5163 H       
  28 H28            0.6628     0.9173    -2.3024 H       
  29 H29            1.7005     1.8488    -3.4081 H       
  30 H30            3.0747     3.8423    -2.3969 H       
  31 H31            2.6413     0.1400    -1.0584 H       
  32 H32            2.8263    -0.2488    -2.7881 H       
  33 H33            1.4465     5.3358     2.5507 H       
  34 H34            4.9121     0.7405    -1.8453 H       
  35 H35            4.2054     1.7828    -3.1052 H       
  36 H36            4.5080     5.5297    -1.3031 H       
  37 H37            3.0561     7.1860     2.3482 H       
  38 H38            3.5821     8.7694    -0.8960 H       
  39 H39            5.3083     9.1907    -1.0018 H       
  40 H40            4.7085     7.6970    -1.7618 H       
  41 H41            4.8954     8.0020     2.5017 H       
  42 H42            5.4174     9.3688     1.4879 H       
  43 H43            3.6912     8.9475     1.5937 H       
  44 H44            6.3987     6.3699    -0.4874 H       
  45 H45            6.9984     7.8635     0.2726 H       
  46 H46            6.4764     6.4967     1.2864 H       
  47 H47            0.9372    -0.5442    -0.0105 H       
  48 H48           -1.2314    -1.7603     0.0045 H       
  49 H49           -3.3316    -0.4752     0.0327 H       
  50 H50           -1.2559     3.1188     0.0360 H       
@<TRIPOS>BOND
   1    1   20 ar
   2    1    2 1
   3    1   24 ar
   4    2    3 1
   5    2    4 1
   6    2   25 1
   7    3    5 1
   8    3    6 1
   9    3   26 1
  10    4    7 1
  11    4   27 1
  12    5    8 1
  13    5   28 1
  14    5   29 1
  15    6    9 1
  16    6   10 1
  17    6   30 1
  18    7    9 ar
  19    7   11 ar
  20    8   12 1
  21    8   31 1
  22    8   32 1
  23    9   13 ar
  24   10   12 1
  25   11   14 ar
  26   11   33 1
  27   12   34 1
  28   12   35 1
  29   13   15 ar
  30   13   36 1
  31   14   15 ar
  32   14   37 1
  33   15   16 1
  34   16   17 1
  35   16   18 1
  36   16   19 1
  37   17   38 1
  38   17   39 1
  39   17   40 1
  40   18   41 1
  41   18   42 1
  42   18   43 1
  43   19   44 1
  44   19   45 1
  45   19   46 1
  46   20   21 ar
  47   20   47 1
  48   21   22 ar
  49   21   48 1
  50   22   23 ar
  51   22   49 1
  52   23   24 ar
  53   24   50 1

#	End of record

