#	Name: ASD01148580
#	Creating user name:	WinNT
#	Creation time:	15. 06. 2019 19:02

#	Modifying user name:	WinNT
#	Modification time:	15. 06. 2019 19:02

#	Program:	/corina/corina34_cracker 3.40 0067  02.08.2006

@<TRIPOS>MOLECULE
ASD01148580
  61   65    0    0    0
SMALL
NO_CHARGES


@<TRIPOS>ATOM
   1 C1            -0.0170     1.4364    -0.0252 C.ar    
   2 C2             0.0191     0.0536    -0.0358 C.ar    
   3 C3            -1.1595    -0.6684    -0.0202 C.ar    
   4 C4            -2.3740    -0.0090     0.0060 C.ar    
   5 C5            -2.4107     1.3731     0.0167 C.ar    
   6 C6            -1.2330     2.0960     0.0064 C.ar    
   7 C7            -3.7353     2.0913     0.0454 C.3     
   8 O8            -4.7239     1.3223     0.7600 O.3     
   9 C9            -3.6509     3.3744     0.9060 C.3     
  10 C10           -4.1234     2.8922     2.2643 C.2     
  11 N11           -4.7048     1.7486     2.1080 N.2     
  12 C12           -3.9489     3.6043     3.5418 C.ar    
  13 C13           -4.4553     3.0231     4.7827 C.ar    
  14 C14           -3.2973     4.8294     3.5753 C.ar    
  15 C15           -3.1196     5.5200     4.7610 C.ar    
  16 C16           -3.5848     5.0173     5.9682 C.ar    
  17 C17           -4.2736     3.7294     5.9953 C.ar    
  18 C18           -3.3801     5.7757     7.2159 C.2     
  19 O19           -3.8805     5.3858     8.2534 O.2     
  20 N20           -2.6386     6.9011     7.2066 N.am    
  21 C21           -4.7591     3.1837     7.1903 C.ar    
  22 C22           -5.1134     1.7867     4.7971 C.ar    
  23 C23           -4.2116     2.4125    -1.3727 C.3     
  24 F24           -4.3441     1.2249    -2.1003 F       
  25 F25           -5.4485     3.0633    -1.3130 F       
  26 F26           -3.2776     3.2428    -2.0015 F       
  27 Cl27           1.4628     2.3439    -0.0442 Cl      
  28 N28           -2.4441     7.6217     8.3922 N.pl3   
  29 C29           -1.5198     7.1191     9.4116 C.3     
  30 C30           -3.1315     8.8193     8.6022 C.ar    
  31 C31           -2.9399     9.5351     9.7772 C.ar    
  32 C32           -3.6209    10.7191     9.9815 C.ar    
  33 C33           -4.4926    11.1923     9.0179 C.ar    
  34 C34           -4.6860    10.4820     7.8473 C.ar    
  35 C35           -4.0040     9.3002     7.6341 C.ar    
  36 C36           -5.5697     1.2807     5.9779 C.ar    
  37 C37           -5.3958     1.9783     7.1703 C.ar    
  38 C38           -1.1204    -2.1749    -0.0324 C.3     
  39 F39            0.2101    -2.6066    -0.0594 F       
  40 F40           -1.7470    -2.6669     1.1176 F       
  41 F41           -1.7878    -2.6496    -1.1665 F       
  42 H42            0.9680    -0.4617    -0.0567 H       
  43 H43           -3.2946    -0.5736     0.0179 H       
  44 H44           -1.2618     3.1756     0.0148 H       
  45 H45           -2.6245     3.7374     0.9598 H       
  46 H46           -4.3154     4.1458     0.5166 H       
  47 H47           -2.9206     5.2526     2.6559 H       
  48 H48           -2.6074     6.4707     4.7469 H       
  49 H49           -2.2395     7.2121     6.3790 H       
  50 H50           -4.6296     3.7143     8.1220 H       
  51 H51           -5.2588     1.2378     3.8784 H       
  52 H52           -0.5214     7.5135     9.2229 H       
  53 H53           -1.8568     7.4399    10.3974 H       
  54 H54           -1.4936     6.0301     9.3732 H       
  55 H55           -2.2595     9.1659    10.5303 H       
  56 H56           -3.4726    11.2759    10.8949 H       
  57 H57           -5.0238    12.1185     9.1802 H       
  58 H58           -5.3679    10.8542     7.0970 H       
  59 H59           -4.1555     8.7460     6.7197 H       
  60 H60           -6.0770     0.3273     5.9880 H       
  61 H61           -5.7695     1.5582     8.0923 H       
@<TRIPOS>BOND
   1    1    2 ar
   2    1   27 1
   3    1    6 ar
   4    2    3 ar
   5    2   42 1
   6    3    4 ar
   7    3   38 1
   8    4    5 ar
   9    4   43 1
  10    5    6 ar
  11    5    7 1
  12    6   44 1
  13    7    8 1
  14    7    9 1
  15    7   23 1
  16    8   11 1
  17    9   10 1
  18    9   45 1
  19    9   46 1
  20   10   11 2
  21   10   12 1
  22   12   13 ar
  23   12   14 ar
  24   13   22 ar
  25   13   17 ar
  26   14   15 ar
  27   14   47 1
  28   15   16 ar
  29   15   48 1
  30   16   17 ar
  31   16   18 1
  32   17   21 ar
  33   18   19 2
  34   18   20 am
  35   20   28 1
  36   20   49 1
  37   21   37 ar
  38   21   50 1
  39   22   36 ar
  40   22   51 1
  41   23   24 1
  42   23   25 1
  43   23   26 1
  44   28   29 1
  45   28   30 1
  46   29   52 1
  47   29   53 1
  48   29   54 1
  49   30   31 ar
  50   30   35 ar
  51   31   32 ar
  52   31   55 1
  53   32   33 ar
  54   32   56 1
  55   33   34 ar
  56   33   57 1
  57   34   35 ar
  58   34   58 1
  59   35   59 1
  60   36   37 ar
  61   36   60 1
  62   37   61 1
  63   38   39 1
  64   38   40 1
  65   38   41 1

#	End of record

