#	Name: ASD01814414
#	Creating user name:	WinNT
#	Creation time:	15. 06. 2019 19:32

#	Modifying user name:	WinNT
#	Modification time:	15. 06. 2019 19:32

#	Program:	/corina/corina34_cracker 3.40 0067  02.08.2006

@<TRIPOS>MOLECULE
ASD01814414
  52   57    0    0    0
SMALL
NO_CHARGES


@<TRIPOS>ATOM
   1 C1            -0.0167     1.3819     0.0096 C.ar    
   2 C2             0.0021    -0.0041     0.0020 C.ar    
   3 C3             1.1970    -0.6935    -0.0126 C.ar    
   4 C4             2.3990     0.0035    -0.0203 C.ar    
   5 C5             2.3751     1.4118    -0.0130 C.ar    
   6 C6             1.1661     2.0940     0.0022 C.ar    
   7 N7             3.6102    -0.6576    -0.0345 N.pl3   
   8 N8             4.7455    -0.0610    -0.0416 N.2     
   9 C9             4.8827     1.2396    -0.0363 C.2     
  10 C10            3.6768     2.1037    -0.0217 C.2     
  11 C11            6.0122     2.1721    -0.0426 C.2     
  12 N12            5.4770     3.4118    -0.0319 N.am    
  13 N13            4.0817     3.3389    -0.0197 N.2     
  14 C14            3.5986    -2.1226    -0.0412 C.3     
  15 C15            3.5816    -2.6182    -1.4643 C.ar    
  16 C16            4.7721    -2.8546    -2.1268 C.ar    
  17 C17            4.7598    -3.3085    -3.4313 C.ar    
  18 C18            3.5505    -3.5278    -4.0771 C.ar    
  19 C19            2.3568    -3.2900    -3.4090 C.ar    
  20 C20            2.3756    -2.8411    -2.1030 C.ar    
  21 O21            7.1976     1.8864    -0.0543 O.2     
  22 C22            6.2133     4.5982    -0.0329 C.ar    
  23 C23            7.1649     4.8483    -1.0208 C.ar    
  24 C24            7.8715     6.0326    -0.9873 C.ar    
  25 N25            7.6565     6.9223    -0.0365 N.ar    
  26 C26            6.7643     6.7229     0.9167 C.ar    
  27 C27            6.0119     5.5653     0.9502 C.ar    
  28 N28            3.5347    -3.9880    -5.4011 N.pl3   
  29 C29            2.4325    -4.2411    -6.1426 C.2     
  30 C30            2.8438    -4.6659    -7.3598 C.2     
  31 C31            4.2430    -4.6732    -7.3634 C.2     
  32 N32            4.6579    -4.2614    -6.1924 N.2     
  33 C33            4.9956     5.3459     2.0411 C.3     
  34 Cl34           6.5299     7.9337     2.1385 Cl      
  35 H35           -0.9605     1.9069     0.0169 H       
  36 H36           -0.9294    -0.5505     0.0080 H       
  37 H37            1.1981    -1.7735    -0.0177 H       
  38 H38            1.1510     3.1739     0.0074 H       
  39 H39            4.4903    -2.4953     0.4627 H       
  40 H40            2.7105    -2.4813     0.4791 H       
  41 H41            5.7125    -2.6838    -1.6239 H       
  42 H42            5.6899    -3.4923    -3.9485 H       
  43 H43            1.4146    -3.4594    -3.9090 H       
  44 H44            1.4474    -2.6560    -1.5828 H       
  45 H45            7.3467     4.1245    -1.8015 H       
  46 H46            8.6104     6.2342    -1.7487 H       
  47 H47            1.4080    -4.1254    -5.8210 H       
  48 H48            2.2049    -4.9494    -8.1831 H       
  49 H49            4.8724    -4.9641    -8.1914 H       
  50 H50            4.0313     5.7437     1.7248 H       
  51 H51            4.9007     4.2784     2.2399 H       
  52 H52            5.3197     5.8569     2.9478 H       
@<TRIPOS>BOND
   1    1    2 ar
   2    1    6 ar
   3    1   35 1
   4    2    3 ar
   5    2   36 1
   6    3    4 ar
   7    3   37 1
   8    4    5 ar
   9    4    7 1
  10    5    6 ar
  11    5   10 1
  12    6   38 1
  13    7    8 1
  14    7   14 1
  15    8    9 2
  16    9   10 1
  17    9   11 1
  18   10   13 2
  19   11   12 am
  20   11   21 2
  21   12   13 1
  22   12   22 1
  23   14   15 1
  24   14   39 1
  25   14   40 1
  26   15   16 ar
  27   15   20 ar
  28   16   17 ar
  29   16   41 1
  30   17   18 ar
  31   17   42 1
  32   18   19 ar
  33   18   28 1
  34   19   20 ar
  35   19   43 1
  36   20   44 1
  37   22   23 ar
  38   22   27 ar
  39   23   24 ar
  40   23   45 1
  41   24   25 ar
  42   24   46 1
  43   25   26 ar
  44   26   27 ar
  45   26   34 1
  46   27   33 1
  47   28   29 1
  48   28   32 1
  49   29   30 2
  50   29   47 1
  51   30   31 1
  52   30   48 1
  53   31   32 2
  54   31   49 1
  55   33   50 1
  56   33   51 1
  57   33   52 1

#	End of record

