#	Name: ASD01720033
#	Creating user name:	WinNT
#	Creation time:	15. 06. 2019 19:23

#	Modifying user name:	WinNT
#	Modification time:	15. 06. 2019 19:23

#	Program:	/corina/corina34_cracker 3.40 0067  02.08.2006

@<TRIPOS>MOLECULE
ASD01720033
  72   75    0    0    0
SMALL
NO_CHARGES


@<TRIPOS>ATOM
   1 C1            -0.0187     1.5261     0.0104 C.3     
   2 C2             0.0021    -0.0041     0.0020 C.3     
   3 C3             0.7612    -0.5061     1.2334 C.3     
   4 C4             2.1767     0.0777     1.2237 C.3     
   5 C5             2.0929     1.6055     1.1967 C.3     
   6 N6             1.3585     2.0357     0.0000 N.3     
   7 C7             1.3765     3.4143    -0.1242 C.ar    
   8 C8             2.5985     4.0849    -0.1532 C.ar    
   9 C9             2.6174     5.4475    -0.2765 C.ar    
  10 C10            1.3947     6.1294    -0.3703 C.ar    
  11 C11            0.2009     5.3925    -0.3346 C.ar    
  12 N12            0.2318     4.0758    -0.2193 N.ar    
  13 C13           -1.4326    -0.5346     0.0350 C.3     
  14 C14           -1.4163    -2.0357    -0.0970 C.2     
  15 O15           -0.3650    -2.6211    -0.2063 O.2     
  16 O16           -2.5697    -2.7223    -0.0932 O.3     
  17 O17           -0.9888     6.0330    -0.4238 O.3     
  18 C18           -2.1660     5.2240    -0.3810 C.3     
  19 C19           -3.4030     6.1171    -0.4944 C.3     
  20 C20            1.3646     7.5952    -0.5038 C.2     
  21 O21            0.2994     8.1768    -0.5844 O.2     
  22 N22            2.5174     8.2927    -0.5366 N.am    
  23 C23            2.4874     9.7514    -0.6693 C.3     
  24 C24            2.3138    10.3858     0.7121 C.3     
  25 C25            3.7996    10.2340    -1.2908 C.3     
  26 C26            3.7683    11.7573    -1.4295 C.3     
  27 C27            3.5946    12.3917    -0.0481 C.3     
  28 C28            2.2825    11.9091     0.5734 C.3     
  29 C29           -4.6569     5.2439    -0.5741 C.3     
  30 C30           -5.8940     6.1371    -0.6875 C.3     
  31 C31           -5.9819     7.0449     0.5409 C.3     
  32 C32           -4.7281     7.9180     0.6206 C.3     
  33 C33           -3.4910     7.0249     0.7340 C.3     
  34 H34           -0.5461     1.8871    -0.8725 H       
  35 H35           -0.5291     1.8775     0.9071 H       
  36 H36            0.5002    -0.3563    -0.9012 H       
  37 H37            0.2416    -0.1869     2.1368 H       
  38 H38            0.8159    -1.5945     1.2088 H       
  39 H39            2.7082    -0.2418     2.1201 H       
  40 H40            2.7091    -0.2732     0.3397 H       
  41 H41            1.5725     1.9565     2.0879 H       
  42 H42            3.0991     2.0241     1.1754 H       
  43 H43            3.5237     3.5327    -0.0786 H       
  44 H44            3.5531     5.9864    -0.3007 H       
  45 H45           -1.9006    -0.2580     0.9798 H       
  46 H46           -1.9985    -0.1033    -0.7908 H       
  47 H47           -2.5087    -3.6835    -0.1805 H       
  48 H48           -2.1511     4.5168    -1.2104 H       
  49 H49           -2.1974     4.6777     0.5617 H       
  50 H50           -3.3284     6.7287    -1.3936 H       
  51 H51            3.3669     7.8289    -0.4723 H       
  52 H52            1.6541    10.0409    -1.3095 H       
  53 H53            1.3790    10.0419     1.1549 H       
  54 H54            3.1471    10.0962     1.3522 H       
  55 H55            4.6329     9.9444    -0.6507 H       
  56 H56            3.9233     9.7820    -2.2750 H       
  57 H57            4.7031    12.1012    -1.8722 H       
  58 H58            2.9350    12.0469    -2.0696 H       
  59 H59            4.4280    12.1022     0.5921 H       
  60 H60            3.5723    13.4770    -0.1468 H       
  61 H61            1.4491    12.1987    -0.0667 H       
  62 H62            2.1587    12.3611     1.5576 H       
  63 H63           -4.5942     4.5972    -1.4493 H       
  64 H64           -4.7315     4.6323     0.3250 H       
  65 H65           -5.8194     6.7487    -1.5867 H       
  66 H66           -6.7872     5.5150    -0.7443 H       
  67 H67           -6.8632     7.6811     0.4601 H       
  68 H68           -6.0565     6.4333     1.4400 H       
  69 H69           -4.6535     8.5296    -0.2786 H       
  70 H70           -4.7907     8.5648     1.4958 H       
  71 H71           -3.5656     6.4133     1.6332 H       
  72 H72           -2.5977     7.6469     0.7908 H       
@<TRIPOS>BOND
   1    1    2 1
   2    1    6 1
   3    1   34 1
   4    1   35 1
   5    2    3 1
   6    2   13 1
   7    2   36 1
   8    3    4 1
   9    3   37 1
  10    3   38 1
  11    4    5 1
  12    4   39 1
  13    4   40 1
  14    5    6 1
  15    5   41 1
  16    5   42 1
  17    6    7 1
  18    7    8 ar
  19    7   12 ar
  20    8    9 ar
  21    8   43 1
  22    9   10 ar
  23    9   44 1
  24   10   11 ar
  25   10   20 1
  26   11   12 ar
  27   11   17 1
  28   13   14 1
  29   13   45 1
  30   13   46 1
  31   14   15 2
  32   14   16 1
  33   16   47 1
  34   17   18 1
  35   18   19 1
  36   18   48 1
  37   18   49 1
  38   19   29 1
  39   19   33 1
  40   19   50 1
  41   20   21 2
  42   20   22 am
  43   22   23 1
  44   22   51 1
  45   23   25 1
  46   23   24 1
  47   23   52 1
  48   24   28 1
  49   24   53 1
  50   24   54 1
  51   25   26 1
  52   25   55 1
  53   25   56 1
  54   26   27 1
  55   26   57 1
  56   26   58 1
  57   27   28 1
  58   27   59 1
  59   27   60 1
  60   28   61 1
  61   28   62 1
  62   29   30 1
  63   29   63 1
  64   29   64 1
  65   30   31 1
  66   30   65 1
  67   30   66 1
  68   31   32 1
  69   31   67 1
  70   31   68 1
  71   32   33 1
  72   32   69 1
  73   32   70 1
  74   33   71 1
  75   33   72 1

#	End of record

