#	Name: ASD01010027
#	Creating user name:	WinNT
#	Creation time:	15. 06. 2019 18:56

#	Modifying user name:	WinNT
#	Modification time:	15. 06. 2019 18:56

#	Program:	/corina/corina34_cracker 3.40 0067  02.08.2006

@<TRIPOS>MOLECULE
ASD01010027
  17   17    0    0    0
SMALL
NO_CHARGES


@<TRIPOS>ATOM
   1 C1             0.1290     1.3485     0.8105 C.2     
   2 C2             0.0735    -0.0625     0.3915 C.ar    
   3 C3             1.2193    -0.6935    -0.1191 C.ar    
   4 C4             1.1539    -2.0252    -0.5109 C.ar    
   5 C5            -0.0325    -2.7217    -0.3982 C.ar    
   6 C6            -1.1656    -2.1014     0.1051 C.ar    
   7 C7            -1.1185    -0.7835     0.5051 C.ar    
   8 O8             1.1902     1.9407     0.8116 O.2     
   9 O9            -0.9979     1.9844     1.1872 O.3     
  10 I10           -2.9566    -3.1762     0.2673 I       
  11 I11            2.8574    -2.9764    -1.2741 I       
  12 N12            2.4116     0.0098    -0.2323 N.pl3   
  13 H13           -0.0784    -3.7563    -0.7044 H       
  14 H14           -2.0029    -0.3068     0.9013 H       
  15 H15           -0.9116     2.9098     1.4539 H       
  16 H16            2.3994     0.9773    -0.3009 H       
  17 H17            3.2565    -0.4666    -0.2428 H       
@<TRIPOS>BOND
   1    1    2 1
   2    1    8 2
   3    1    9 1
   4    2    3 ar
   5    2    7 ar
   6    3    4 ar
   7    3   12 1
   8    4    5 ar
   9    4   11 1
  10    5    6 ar
  11    5   13 1
  12    6    7 ar
  13    6   10 1
  14    7   14 1
  15    9   15 1
  16   12   16 1
  17   12   17 1

#	End of record

