#	Name: ASD01916286
#	Creating user name:	WinNT
#	Creation time:	15. 06. 2019 20:07

#	Modifying user name:	WinNT
#	Modification time:	15. 06. 2019 20:07

#	Program:	/corina/corina34_cracker 3.40 0067  02.08.2006

@<TRIPOS>MOLECULE
ASD01916286
  46   48    0    0    0
SMALL
NO_CHARGES


@<TRIPOS>ATOM
   1 C1            -0.0166     1.3753     0.0096 C.ar    
   2 C2             0.0021    -0.0041     0.0020 C.ar    
   3 C3             1.2079    -0.6825    -0.0127 C.ar    
   4 C4             2.4015     0.0164    -0.0203 C.ar    
   5 C5             2.3966     1.3963    -0.0133 C.ar    
   6 C6             1.1841     2.0864     0.0020 C.ar    
   7 C7             3.7102    -0.7307    -0.0358 C.3     
   8 C8             1.1719     3.5184     0.0093 C.1     
   9 C9             1.1618     4.6923     0.0153 C.1     
  10 C10            1.1492     6.1642     0.0228 C.3     
  11 C11           -0.2809     6.6442     0.0392 C.3     
  12 C12           -1.0183     6.3501     1.3578 C.3     
  13 C13           -0.1738     6.7769     2.5610 C.3     
  14 C14            1.2170     6.1519     2.5010 C.3     
  15 C15            1.9252     6.6634     1.2412 C.3     
  16 O16            1.7878     6.6418    -1.1629 O.3     
  17 C17           -0.3935     8.1791    -0.0628 C.3     
  18 C18           -1.8141     8.4385     0.4918 C.3     
  19 N19           -2.1812     7.2736     1.3134 N.am    
  20 H20           -1.3156     5.3038     1.4275 H       
  21 H21           -0.8259     6.1952    -0.7912 H       
  22 C22           -3.3685     7.0780     1.9204 C.2     
  23 O23           -4.3452     7.9969     1.8006 O.3     
  24 C24           -5.5976     7.7202     2.4812 C.3     
  25 O25           -3.5574     6.0724     2.5757 O.2     
  26 H26           -0.9585     1.9037     0.0169 H       
  27 H27           -0.9265    -0.5556     0.0079 H       
  28 H28            1.2172    -1.7625    -0.0179 H       
  29 H29            3.3292     1.9409    -0.0189 H       
  30 H30            4.0163    -0.9060    -1.0672 H       
  31 H31            4.4717    -0.1404     0.4738 H       
  32 H32            3.5892    -1.6862     0.4746 H       
  33 H33           -0.0786     7.8627     2.5646 H       
  34 H34           -0.6702     6.4588     3.4778 H       
  35 H35            1.7868     6.4406     3.3843 H       
  36 H36            1.1292     5.0663     2.4567 H       
  37 H37            2.9448     6.2792     1.2106 H       
  38 H38            1.9420     7.7533     1.2454 H       
  39 H39            2.7086     6.3609    -1.2541 H       
  40 H40            0.3600     8.6657     0.5565 H       
  41 H41           -0.3157     8.5061    -1.0997 H       
  42 H42           -1.8139     9.3395     1.1052 H       
  43 H43           -2.5194     8.5483    -0.3320 H       
  44 H44           -5.4159     7.6238     3.5516 H       
  45 H45           -6.2961     8.5379     2.3035 H       
  46 H46           -6.0211     6.7912     2.0995 H       
@<TRIPOS>BOND
   1    1    2 ar
   2    1    6 ar
   3    1   26 1
   4    2    3 ar
   5    2   27 1
   6    3    4 ar
   7    3   28 1
   8    4    5 ar
   9    4    7 1
  10    5    6 ar
  11    5   29 1
  12    6    8 1
  13    7   30 1
  14    7   31 1
  15    7   32 1
  16    8    9 3
  17    9   10 1
  18   10   11 1
  19   10   16 1
  20   10   15 1
  21   11   12 1
  22   11   17 1
  23   11   21 1
  24   12   13 1
  25   12   20 1
  26   12   19 1
  27   13   14 1
  28   13   33 1
  29   13   34 1
  30   14   15 1
  31   14   35 1
  32   14   36 1
  33   15   37 1
  34   15   38 1
  35   16   39 1
  36   17   18 1
  37   17   40 1
  38   17   41 1
  39   18   19 1
  40   18   42 1
  41   18   43 1
  42   19   22 am
  43   22   23 1
  44   22   25 2
  45   23   24 1
  46   24   44 1
  47   24   45 1
  48   24   46 1

#	End of record

