#	Name: ASD01900878
#	Creating user name:	WinNT
#	Creation time:	15. 06. 2019 19:52

#	Modifying user name:	WinNT
#	Modification time:	15. 06. 2019 19:52

#	Program:	/corina/corina34_cracker 3.40 0067  02.08.2006

@<TRIPOS>MOLECULE
ASD01900878
  57   61    0    0    0
SMALL
NO_CHARGES


@<TRIPOS>ATOM
   1 C1             0.1779     0.8173    -0.3936 C.ar    
   2 C2             0.3638    -0.5485    -0.4308 C.ar    
   3 C3             1.6414    -1.0828    -0.5133 C.ar    
   4 C4             2.7480    -0.2544    -0.5517 C.ar    
   5 C5             2.5782     1.1187    -0.5094 C.ar    
   6 C6             1.2835     1.6637    -0.4407 C.ar    
   7 N7             3.6608     1.9910    -0.5258 N.pl3   
   8 C8             3.4807     3.3316    -1.0944 C.3     
   9 N9             2.2126     3.9071    -0.6450 N.am    
  10 C10            1.1373     3.1289    -0.4099 C.2     
  11 C11            2.1146     5.2892    -0.4551 C.ar    
  12 C12            1.4723     6.0778    -1.4008 C.ar    
  13 C13            1.3769     7.4423    -1.2100 C.ar    
  14 C14            1.9200     8.0235    -0.0789 C.ar    
  15 C15            2.5605     7.2412     0.8645 C.ar    
  16 C16            2.6544     5.8753     0.6825 C.ar    
  17 C17            1.8140     9.5127     0.1260 C.3     
  18 O18            0.0556     3.6324    -0.1743 O.2     
  19 C19            4.6355     4.2311    -0.6438 C.3     
  20 C20            3.4857     3.2380    -2.6228 C.3     
  21 C21            3.3666     4.6444    -3.2146 C.3     
  22 N22            4.4908     5.4684    -2.7529 N.3     
  23 C23            4.4822     5.6093    -1.2913 C.3     
  24 C24            4.4841     6.7830    -3.4085 C.3     
  25 C25            5.5998     7.6284    -2.8505 C.ar    
  26 C26            6.8831     7.4935    -3.3471 C.ar    
  27 C27            7.9081     8.2674    -2.8366 C.ar    
  28 C28            7.6504     9.1790    -1.8274 C.ar    
  29 C29            6.3634     9.3146    -1.3298 C.ar    
  30 C30            5.3381     8.5418    -1.8467 C.ar    
  31 F31            8.6519     9.9355    -1.3276 F       
  32 F32            6.1096    10.2034    -0.3445 F       
  33 Br33           1.8716    -2.9587    -0.5734 Br      
  34 F34            0.6379     9.8047     0.8251 F       
  35 F35            2.9167     9.9621     0.8603 F       
  36 F36            1.7889    10.1539    -1.1171 F       
  37 H37           -0.8189     1.2285    -0.3330 H       
  38 H38           -0.4914    -1.2071    -0.3949 H       
  39 H39            3.7400    -0.6768    -0.6139 H       
  40 H40            4.5199     1.7182    -0.1673 H       
  41 H41            1.0482     5.6246    -2.2846 H       
  42 H42            0.8778     8.0562    -1.9452 H       
  43 H43            2.9840     7.6981     1.7467 H       
  44 H44            3.1509     5.2643     1.4218 H       
  45 H45            4.6149     4.3341     0.4411 H       
  46 H46            5.5831     3.7881    -0.9504 H       
  47 H47            4.4170     2.7803    -2.9565 H       
  48 H48            2.6424     2.6315    -2.9531 H       
  49 H49            3.3841     4.5831    -4.3027 H       
  50 H50            2.4286     5.0960    -2.8916 H       
  51 H51            3.5397     6.0564    -0.9751 H       
  52 H52            5.3090     6.2493    -0.9833 H       
  53 H53            4.6272     6.6546    -4.4815 H       
  54 H54            3.5289     7.2753    -3.2258 H       
  55 H55            7.0848     6.7824    -4.1345 H       
  56 H56            8.9102     8.1606    -3.2248 H       
  57 H57            4.3344     8.6493    -1.4627 H       
@<TRIPOS>BOND
   1    1    2 ar
   2    1    6 ar
   3    1   37 1
   4    2    3 ar
   5    2   38 1
   6    3    4 ar
   7    3   33 1
   8    4    5 ar
   9    4   39 1
  10    5    7 1
  11    5    6 ar
  12    6   10 1
  13    7    8 1
  14    7   40 1
  15    8    9 1
  16    8   20 1
  17    8   19 1
  18    9   10 am
  19    9   11 1
  20   10   18 2
  21   11   12 ar
  22   11   16 ar
  23   12   13 ar
  24   12   41 1
  25   13   14 ar
  26   13   42 1
  27   14   15 ar
  28   14   17 1
  29   15   16 ar
  30   15   43 1
  31   16   44 1
  32   17   34 1
  33   17   35 1
  34   17   36 1
  35   19   23 1
  36   19   45 1
  37   19   46 1
  38   20   21 1
  39   20   47 1
  40   20   48 1
  41   21   22 1
  42   21   49 1
  43   21   50 1
  44   22   23 1
  45   22   24 1
  46   23   51 1
  47   23   52 1
  48   24   25 1
  49   24   53 1
  50   24   54 1
  51   25   26 ar
  52   25   30 ar
  53   26   27 ar
  54   26   55 1
  55   27   28 ar
  56   27   56 1
  57   28   29 ar
  58   28   31 1
  59   29   30 ar
  60   29   32 1
  61   30   57 1

#	End of record

