#	Name: ASD03330792
#	Creating user name:	WinNT
#	Creation time:	15. 06. 2019 20:37

#	Modifying user name:	WinNT
#	Modification time:	15. 06. 2019 20:37

#	Program:	/corina/corina34_cracker 3.40 0067  02.08.2006

@<TRIPOS>MOLECULE
ASD03330792
  57   59    0    0    0
SMALL
NO_CHARGES


@<TRIPOS>ATOM
   1 C1            -0.2852     1.8829    -0.8621 C.2     
   2 N2            -0.5128     0.5483    -0.8647 N.pl3   
   3 C3             0.9282     2.0827    -0.2761 C.2     
   4 N4             1.4303     0.8728     0.0536 N.2     
   5 C5             0.5734    -0.0554    -0.3017 C.2     
   6 C6             0.7548    -1.5127    -0.1215 C.ar    
   7 C7             1.5772     3.3853    -0.0442 C.2     
   8 O8             1.0220     4.4112    -0.3885 O.2     
   9 C9             3.4311     4.7347     0.7799 C.3     
  10 N10            2.7860     3.4398     0.5494 N.am    
  11 C11            4.1929     5.1561    -0.4782 C.3     
  12 C12            4.3930     4.6183     1.9342 C.2     
  13 O13            4.9162     3.5527     2.1825 O.2     
  14 C14           -1.7214    -0.1071    -1.3723 C.3     
  15 C15           -2.0675     0.4715    -2.7477 C.3     
  16 C16           -2.9462     1.7072    -2.5805 C.3     
  17 N17           -2.5909     2.4440    -1.3659 N.3     
  18 C18           -1.2060     2.9345    -1.4248 C.3     
  19 C19            2.0333    -2.0697    -0.1618 C.ar    
  20 C20            2.1958    -3.4294     0.0074 C.ar    
  21 C21           -3.5304     3.5474    -1.1257 C.3     
  22 N22            4.6718     5.6984     2.6906 N.am    
  23 C23            1.0942    -4.2400     0.2162 C.ar    
  24 C24            3.2145     5.2863    -1.6473 C.3     
  25 C25            4.8768     6.5027    -0.2333 C.3     
  26 C26            5.2492     4.1009    -0.8123 C.3     
  27 C27           -0.3514    -2.3347     0.0951 C.ar    
  28 C28           -0.1761    -3.6937     0.2571 C.ar    
  29 H29            2.6727     5.4821     1.0129 H       
  30 H30            3.2288     2.6216     0.8240 H       
  31 H31           -1.5442    -1.1788    -1.4621 H       
  32 H32           -2.5480     0.0699    -0.6842 H       
  33 H33           -1.1494     0.7470    -3.2666 H       
  34 H34           -2.6024    -0.2773    -3.3319 H       
  35 H35           -2.8162     2.3583    -3.4450 H       
  36 H36           -3.9898     1.3987    -2.5196 H       
  37 H37           -1.1178     3.8483    -0.8372 H       
  38 H38           -0.9357     3.1389    -2.4608 H       
  39 H39            2.8939    -1.4381    -0.3254 H       
  40 H40            3.1849    -3.8619    -0.0235 H       
  41 H41           -4.5380     3.1480    -1.0101 H       
  42 H42           -3.2434     4.0778    -0.2177 H       
  43 H43           -3.5070     4.2351    -1.9710 H       
  44 H44            4.1972     6.5310     2.5408 H       
  45 H45            5.3470     5.6432     3.3848 H       
  46 H46            1.2266    -5.3038     0.3474 H       
  47 H47            2.4619     6.0380    -1.4093 H       
  48 H48            3.7572     5.5865    -2.5436 H       
  49 H49            2.7272     4.3270    -1.8218 H       
  50 H50            5.6448     6.3864     0.5314 H       
  51 H51            5.3355     6.8509    -1.1588 H       
  52 H52            4.1375     7.2301     0.1019 H       
  53 H53            4.7620     3.1416    -0.9868 H       
  54 H54            5.7919     4.4011    -1.7086 H       
  55 H55            5.9463     4.0082     0.0205 H       
  56 H56           -1.3433    -1.9089     0.1313 H       
  57 H57           -1.0317    -4.3312     0.4249 H       
@<TRIPOS>BOND
   1    1    2 1
   2    1    3 2
   3    1   18 1
   4    2   14 1
   5    2    5 1
   6    3    4 1
   7    3    7 1
   8    4    5 2
   9    5    6 1
  10    6   27 ar
  11    6   19 ar
  12    7    8 2
  13    7   10 am
  14    9   10 1
  15    9   11 1
  16    9   12 1
  17    9   29 1
  18   10   30 1
  19   11   24 1
  20   11   25 1
  21   11   26 1
  22   12   13 2
  23   12   22 am
  24   14   15 1
  25   14   31 1
  26   14   32 1
  27   15   16 1
  28   15   33 1
  29   15   34 1
  30   16   17 1
  31   16   35 1
  32   16   36 1
  33   17   18 1
  34   17   21 1
  35   18   37 1
  36   18   38 1
  37   19   20 ar
  38   19   39 1
  39   20   23 ar
  40   20   40 1
  41   21   41 1
  42   21   42 1
  43   21   43 1
  44   22   44 1
  45   22   45 1
  46   23   28 ar
  47   23   46 1
  48   24   47 1
  49   24   48 1
  50   24   49 1
  51   25   50 1
  52   25   51 1
  53   25   52 1
  54   26   53 1
  55   26   54 1
  56   26   55 1
  57   27   28 ar
  58   27   56 1
  59   28   57 1

#	End of record

