#	Name: ASD03331493
#	Creating user name:	WinNT
#	Creation time:	15. 06. 2019 20:39

#	Modifying user name:	WinNT
#	Modification time:	15. 06. 2019 20:39

#	Program:	/corina/corina34_cracker 3.40 0067  02.08.2006

@<TRIPOS>MOLECULE
ASD03331493
  62   65    0    0    0
SMALL
NO_CHARGES


@<TRIPOS>ATOM
   1 C1             0.1510     1.2826     0.8398 C.ar    
   2 C2             0.1307    -0.1816     0.6287 C.2     
   3 N3            -0.9128    -1.0140     0.9189 N.pl3   
   4 C4            -0.5307    -2.2708     0.5936 C.2     
   5 C5             0.7342    -2.1928     0.0938 C.2     
   6 N6             1.1097    -0.8958     0.1263 N.2     
   7 C7             1.5454    -3.3204    -0.3984 C.2     
   8 N8             2.7891    -3.1009    -0.8690 N.am    
   9 C9             1.3664     1.9649     0.9000 C.ar    
  10 O10            1.0925    -4.4490    -0.3800 O.2     
  11 C11            3.5955    -4.2219    -1.3583 C.3     
  12 C12            3.2487    -4.4988    -2.8225 C.3     
  13 C13            5.0578    -3.8758    -1.2452 C.2     
  14 C14            3.4178    -3.2154    -3.6382 C.3     
  15 C15            4.1822    -5.5792    -3.3723 C.3     
  16 C16            1.7992    -4.9787    -2.9214 C.3     
  17 C17            1.3786     3.3305     1.0967 C.ar    
  18 C18            0.1889     4.0231     1.2345 C.ar    
  19 C19           -1.0196     3.3523     1.1758 C.ar    
  20 C20           -1.0454     1.9877     0.9738 C.ar    
  21 C21           -2.2130    -0.6209     1.4694 C.3     
  22 C22           -2.8069    -1.7893     2.2593 C.3     
  23 C23           -3.6423    -2.6707     1.3318 C.3     
  24 C24           -2.7698    -3.2578     0.2266 C.3     
  25 C25           -1.3611    -3.5148     0.7706 C.3     
  26 N26            5.9606    -4.8414    -0.9825 N.am    
  27 O27            5.4224    -2.7282    -1.3907 O.2     
  28 C28            7.4060    -4.8958    -0.7166 C.3     
  29 C29            7.4015    -6.3226    -1.2828 C.3     
  30 C30            5.9325    -6.3038    -0.8291 C.3     
  31 H31            3.1503    -2.2008    -0.8837 H       
  32 H32            2.2958     1.4252     0.7932 H       
  33 H33            3.3849    -5.1090    -0.7610 H       
  34 H34            4.4504    -2.8735    -3.5678 H       
  35 H35            3.1707    -3.4127    -4.6813 H       
  36 H36            2.7527    -2.4457    -3.2465 H       
  37 H37            4.0157    -6.5118    -2.8333 H       
  38 H38            3.9782    -5.7307    -4.4322 H       
  39 H39            5.2178    -5.2647    -3.2429 H       
  40 H40            1.1342    -4.2090    -2.5297 H       
  41 H41            1.5522    -5.1759    -3.9645 H       
  42 H42            1.6788    -5.8930    -2.3403 H       
  43 H43            2.3188     3.8598     1.1434 H       
  44 H44            0.2037     5.0919     1.3890 H       
  45 H45           -1.9449     3.8986     1.2845 H       
  46 H46           -1.9895     1.4652     0.9278 H       
  47 H47           -2.0836     0.2361     2.1305 H       
  48 H48           -2.8865    -0.3532     0.6552 H       
  49 H49           -2.0003    -2.3812     2.6919 H       
  50 H50           -3.4394    -1.4023     3.0581 H       
  51 H51           -4.0871    -3.4813     1.9089 H       
  52 H52           -4.4363    -2.0725     0.8847 H       
  53 H53           -3.2030    -4.1967    -0.1182 H       
  54 H54           -2.7155    -2.5555    -0.6052 H       
  55 H55           -0.9039    -4.3392     0.2235 H       
  56 H56           -1.4195    -3.7664     1.8295 H       
  57 H57            7.9844    -4.1928    -1.3160 H       
  58 H58            7.6542    -4.8504     0.3438 H       
  59 H59            7.5385    -6.3752    -2.3628 H       
  60 H60            8.0283    -7.0239    -0.7320 H       
  61 H61            5.7919    -6.6331     0.2004 H       
  62 H62            5.2565    -6.7985    -1.5265 H       
@<TRIPOS>BOND
   1    1    2 1
   2    1    9 ar
   3    1   20 ar
   4    2    3 1
   5    2    6 2
   6    3    4 1
   7    3   21 1
   8    4    5 2
   9    4   25 1
  10    5    6 1
  11    5    7 1
  12    7    8 am
  13    7   10 2
  14    8   11 1
  15    8   31 1
  16    9   17 ar
  17    9   32 1
  18   11   12 1
  19   11   13 1
  20   11   33 1
  21   12   14 1
  22   12   15 1
  23   12   16 1
  24   13   26 am
  25   13   27 2
  26   14   34 1
  27   14   35 1
  28   14   36 1
  29   15   37 1
  30   15   38 1
  31   15   39 1
  32   16   40 1
  33   16   41 1
  34   16   42 1
  35   17   18 ar
  36   17   43 1
  37   18   19 ar
  38   18   44 1
  39   19   20 ar
  40   19   45 1
  41   20   46 1
  42   21   22 1
  43   21   47 1
  44   21   48 1
  45   22   23 1
  46   22   49 1
  47   22   50 1
  48   23   24 1
  49   23   51 1
  50   23   52 1
  51   24   25 1
  52   24   53 1
  53   24   54 1
  54   25   55 1
  55   25   56 1
  56   26   28 1
  57   26   30 1
  58   28   29 1
  59   28   57 1
  60   28   58 1
  61   29   30 1
  62   29   59 1
  63   29   60 1
  64   30   61 1
  65   30   62 1

#	End of record

