#	Name: ASD03730924
#	Creating user name:	WinNT
#	Creation time:	15. 06. 2019 20:44

#	Modifying user name:	WinNT
#	Modification time:	15. 06. 2019 20:44

#	Program:	/corina/corina34_cracker 3.40 0067  02.08.2006

@<TRIPOS>MOLECULE
ASD03730924
  59   65    0    0    0
SMALL
NO_CHARGES


@<TRIPOS>ATOM
   1 C1            -0.0180     1.4742     0.0101 C.2     
   2 C2             0.0021    -0.0041     0.0020 C.ar    
   3 C3             1.2186    -0.6886    -0.0133 C.ar    
   4 C4             1.2303    -2.0679    -0.0203 C.ar    
   5 C5             0.0396    -2.7730    -0.0127 C.ar    
   6 C6            -1.1694    -2.1008     0.0024 C.ar    
   7 C7            -1.1950    -0.7213     0.0154 C.ar    
   8 O8             1.0263     2.0963     0.0035 O.2     
   9 N9            -1.1942     2.1322     0.0193 N.am    
  10 C10            2.5426    -2.8085    -0.0368 C.3     
  11 O11           -0.8950    -3.3222     6.2568 O.3     
  12 C12           -0.9357    -3.5767     7.6734 C.3     
  13 O13           -0.0305    -4.6825     7.8486 O.3     
  14 C14            0.8672    -4.5864     6.8240 C.ar    
  15 C15            0.3345    -3.7506     5.8451 C.ar    
  16 C16            2.1164    -5.1528     6.6449 C.ar    
  17 C17            2.8483    -4.8954     5.4896 C.ar    
  18 C18            2.3022    -4.0656     4.5151 C.ar    
  19 C19            1.0594    -3.4944     4.6934 C.ar    
  20 O20            4.0884    -5.3328     5.1276 O.3     
  21 C21            3.3036    -4.0052     3.3929 C.3     
  22 C22            4.2536    -5.1693     3.7058 C.3     
  23 N23            2.9813    -3.0555     1.3390 N.am    
  24 C24            2.6574    -4.1565     2.0459 C.2     
  25 C25            4.0258    -2.6916     3.3422 C.ar    
  26 C26            4.7978    -1.9949     4.2449 C.ar    
  27 C27            5.3433    -0.7733     3.8926 C.ar    
  28 C28            5.1110    -0.2535     2.6322 C.ar    
  29 C29            4.3376    -0.9471     1.7248 C.ar    
  30 C30            3.7848    -2.1777     2.0707 C.ar    
  31 O31            1.9775    -5.0871     1.6680 O.2     
  32 C32           -1.2141     3.5970     0.0274 C.3     
  33 C33           -2.6633     4.0874     0.0369 C.3     
  34 C34           -2.8986     5.5938     0.1645 C.3     
  35 C35           -3.1450     4.8915    -1.1723 C.3     
  36 H36            2.1485    -0.1394    -0.0199 H       
  37 H37            0.0543    -3.8529    -0.0190 H       
  38 H38           -2.0951    -2.6570     0.0083 H       
  39 H39           -2.1395    -0.1977     0.0314 H       
  40 H40           -2.0276     1.6358     0.0206 H       
  41 H41            2.4166    -3.7596    -0.5542 H       
  42 H42            3.2914    -2.2095    -0.5550 H       
  43 H43           -0.5884    -2.7057     8.2291 H       
  44 H44           -1.9432    -3.8536     7.9839 H       
  45 H45            2.5266    -5.7991     7.4068 H       
  46 H46            0.6506    -2.8459     3.9327 H       
  47 H47            5.2829    -4.9048     3.4636 H       
  48 H48            3.9491    -6.0710     3.1745 H       
  49 H49            4.9778    -2.4026     5.2287 H       
  50 H50            5.9496    -0.2270     4.6001 H       
  51 H51            5.5367     0.7002     2.3573 H       
  52 H52            4.1602    -0.5344     0.7427 H       
  53 H53           -0.7010     3.9625     0.9169 H       
  54 H54           -0.7094     3.9721    -0.8630 H       
  55 H55           -3.3811     3.4233     0.5184 H       
  56 H56           -3.7714     5.9207     0.7296 H       
  57 H57           -2.0209     6.2355     0.2416 H       
  58 H58           -2.4294     5.0713    -1.9746 H       
  59 H59           -4.1799     4.7565    -1.4867 H       
@<TRIPOS>BOND
   1    1    2 1
   2    1    8 2
   3    1    9 am
   4    2    3 ar
   5    2    7 ar
   6    3    4 ar
   7    3   36 1
   8    4    5 ar
   9    4   10 1
  10    5    6 ar
  11    5   37 1
  12    6    7 ar
  13    6   38 1
  14    7   39 1
  15    9   32 1
  16    9   40 1
  17   10   23 1
  18   10   41 1
  19   10   42 1
  20   11   12 1
  21   11   15 1
  22   12   13 1
  23   12   43 1
  24   12   44 1
  25   13   14 1
  26   14   15 ar
  27   14   16 ar
  28   15   19 ar
  29   16   17 ar
  30   16   45 1
  31   17   18 ar
  32   17   20 1
  33   18   19 ar
  34   18   21 1
  35   19   46 1
  36   20   22 1
  37   21   22 1
  38   21   24 1
  39   21   25 1
  40   22   47 1
  41   22   48 1
  42   23   24 am
  43   23   30 1
  44   24   31 2
  45   25   26 ar
  46   25   30 ar
  47   26   27 ar
  48   26   49 1
  49   27   28 ar
  50   27   50 1
  51   28   29 ar
  52   28   51 1
  53   29   30 ar
  54   29   52 1
  55   32   33 1
  56   32   53 1
  57   32   54 1
  58   33   34 1
  59   33   35 1
  60   33   55 1
  61   34   35 1
  62   34   56 1
  63   34   57 1
  64   35   58 1
  65   35   59 1

#	End of record

