#	Name: ASD01720113
#	Creating user name:	WinNT
#	Creation time:	15. 06. 2019 19:23

#	Modifying user name:	WinNT
#	Modification time:	15. 06. 2019 19:23

#	Program:	/corina/corina34_cracker 3.40 0067  02.08.2006

@<TRIPOS>MOLECULE
ASD01720113
  64   68    0    0    0
SMALL
NO_CHARGES


@<TRIPOS>ATOM
   1 C1            -0.0164     1.3645     0.0063 C.ar    
   2 C2             0.0021    -0.0041     0.0025 C.ar    
   3 C3             1.2211    -0.6750     0.0829 C.ar    
   4 N4             2.3641    -0.0082     0.1637 N.ar    
   5 C5             2.3952     1.3132     0.1708 C.ar    
   6 C6             1.2038     2.0512     0.0920 C.ar    
   7 N7             1.2385    -2.0593     0.0789 N.3     
   8 O8             3.5828     1.9584     0.2550 O.3     
   9 C9             4.7573     1.1482     0.3328 C.3     
  10 C10            5.9922     2.0471     0.4212 C.3     
  11 C11            7.2497     1.1796     0.5046 C.3     
  12 C12            8.4901     2.0745     0.4673 C.3     
  13 C13            7.2343     0.3834     1.8110 C.3     
  14 C14            1.2342     3.5231     0.0996 C.2     
  15 O15            2.2975     4.1090     0.1742 O.2     
  16 C16            2.6289    -2.5744     0.1716 C.3     
  17 C17            2.5469    -4.0159    -0.3750 C.3     
  18 C18            1.3019    -4.0289    -1.2858 C.3     
  19 C19            0.7365    -2.5943    -1.2129 C.3     
  20 C20            2.6968    -4.2250    -1.8832 C.3     
  21 C21            3.0601    -5.6076    -2.3600 C.2     
  22 O22            3.2213    -6.4993    -1.5608 O.2     
  23 O23            3.2047    -5.8485    -3.6726 O.3     
  24 N24            0.0839     4.2214     0.0239 N.am    
  25 C25            0.1143     5.6860     0.0315 C.3     
  26 C26           -0.8406     5.4598    -2.2306 C.3     
  27 C27            0.2446     6.2345    -1.4223 C.3     
  28 C28           -1.2309     6.2502     0.5429 C.3     
  29 C29           -1.7867     7.0865    -0.6500 C.3     
  30 C30           -2.1858     6.0240    -1.7191 C.3     
  31 C31           -0.4515     7.6328    -1.2682 C.3     
  32 H32           -0.9497     1.9039    -0.0596 H       
  33 H33           -0.9215    -0.5602    -0.0622 H       
  34 H34            4.7042     0.5156     1.2189 H       
  35 H35            4.8265     0.5222    -0.5569 H       
  36 H36            6.0452     2.6797    -0.4648 H       
  37 H37            5.9230     2.6731     1.3109 H       
  38 H38            7.2728     0.4912    -0.3402 H       
  39 H39            8.4669     2.7629     1.3121 H       
  40 H40            9.3859     1.4565     0.5267 H       
  41 H41            8.5010     2.6418    -0.4634 H       
  42 H42            6.3506    -0.2542     1.8375 H       
  43 H43            8.1301    -0.2347     1.8703 H       
  44 H44            7.2112     1.0717     2.6558 H       
  45 H45            3.2990    -1.9726    -0.4422 H       
  46 H46            2.9639    -2.5797     1.2088 H       
  47 H47            2.7613    -4.8311     0.3160 H       
  48 H48            0.5896    -4.8539    -1.2728 H       
  49 H49           -0.3533    -2.6145    -1.2181 H       
  50 H50            1.1104    -1.9956    -2.0434 H       
  51 H51            3.1140    -3.4032    -2.4653 H       
  52 H52            3.4383    -6.7508    -3.9302 H       
  53 H53           -0.7640     3.7541    -0.0356 H       
  54 H54            0.9367     6.0451     0.6502 H       
  55 H55           -0.7290     5.6520    -3.2977 H       
  56 H56           -0.7750     4.3909    -2.0272 H       
  57 H57            1.2490     6.2283    -1.8456 H       
  58 H58           -1.9149     5.4379     0.7887 H       
  59 H59           -1.0696     6.8883     1.4118 H       
  60 H60           -2.5513     7.8223    -0.4008 H       
  61 H61           -2.7356     6.4936    -2.5348 H       
  62 H62           -2.7815     5.2326    -1.2644 H       
  63 H63            0.0841     8.2820    -0.5756 H       
  64 H64           -0.6148     8.1164    -2.2313 H       
@<TRIPOS>BOND
   1    1    2 ar
   2    1    6 ar
   3    1   32 1
   4    2    3 ar
   5    2   33 1
   6    3    4 ar
   7    3    7 1
   8    4    5 ar
   9    5    6 ar
  10    5    8 1
  11    6   14 1
  12    7   16 1
  13    7   19 1
  14    8    9 1
  15    9   10 1
  16    9   34 1
  17    9   35 1
  18   10   11 1
  19   10   36 1
  20   10   37 1
  21   11   12 1
  22   11   13 1
  23   11   38 1
  24   12   39 1
  25   12   40 1
  26   12   41 1
  27   13   42 1
  28   13   43 1
  29   13   44 1
  30   14   15 2
  31   14   24 am
  32   16   17 1
  33   16   45 1
  34   16   46 1
  35   17   18 1
  36   17   20 1
  37   17   47 1
  38   18   19 1
  39   18   20 1
  40   18   48 1
  41   19   49 1
  42   19   50 1
  43   20   21 1
  44   20   51 1
  45   21   22 2
  46   21   23 1
  47   23   52 1
  48   24   25 1
  49   24   53 1
  50   25   28 1
  51   25   27 1
  52   25   54 1
  53   26   27 1
  54   26   30 1
  55   26   55 1
  56   26   56 1
  57   27   31 1
  58   27   57 1
  59   28   29 1
  60   28   58 1
  61   28   59 1
  62   29   30 1
  63   29   31 1
  64   29   60 1
  65   30   61 1
  66   30   62 1
  67   31   63 1
  68   31   64 1

#	End of record

