#	Name: ASD00071099
#	Creating user name:	WinNT
#	Creation time:	15. 06. 2019 18:30

#	Modifying user name:	WinNT
#	Modification time:	15. 06. 2019 18:30

#	Program:	/corina/corina34_cracker 3.40 0067  02.08.2006

@<TRIPOS>MOLECULE
ASD00071099
  40   41    0    0    0
SMALL
NO_CHARGES


@<TRIPOS>ATOM
   1 N1             1.8032    -2.3944     0.9158 N.pl3   
   2 C2             1.0062    -1.9680     1.9806 C.ar    
   3 C3             1.4688    -0.9845     2.8462 C.ar    
   4 C4             0.6786    -0.5645     3.8978 C.ar    
   5 C5            -0.5724    -1.1215     4.0904 C.ar    
   6 C6            -1.0366    -2.1011     3.2307 C.ar    
   7 C7            -0.2526    -2.5220     2.1731 C.ar    
   8 C8             2.8321    -0.3770     2.6378 C.3     
   9 N9             2.7585     0.6402     1.5804 N.3     
  10 C10            4.0326     1.3601     1.4529 C.3     
  11 C11            4.3936     1.9809     2.7778 C.ar    
  12 C12            5.6180     1.7079     3.3583 C.ar    
  13 C13            5.9491     2.2773     4.5736 C.ar    
  14 C14            5.0560     3.1202     5.2082 C.ar    
  15 C15            3.8319     3.3940     4.6272 C.ar    
  16 C16            3.5025     2.8280     3.4098 C.ar    
  17 O17            5.0587     0.4466     1.0596 O.3     
  18 C18            4.8047    -0.2132    -0.1823 C.3     
  19 O19            3.9037     2.3853     0.4658 O.3     
  20 C20            5.1042     3.1259     0.2367 C.3     
  21 Br21          -2.7480    -2.8595     3.4985 Br      
  22 H22            2.6806    -2.0039     0.7800 H       
  23 H23            1.4808    -3.0839     0.3145 H       
  24 H24            1.0381     0.1997     4.5709 H       
  25 H25           -1.1883    -0.7914     4.9139 H       
  26 H26           -0.6169    -3.2835     1.4994 H       
  27 H27            3.1690     0.0865     3.5650 H       
  28 H28            3.5360    -1.1558     2.3443 H       
  29 H29            2.4864     0.2280     0.7005 H       
  30 H30            6.3159     1.0493     2.8625 H       
  31 H31            6.9055     2.0634     5.0275 H       
  32 H32            5.3143     3.5645     6.1581 H       
  33 H33            3.1339     4.0522     5.1232 H       
  34 H34            2.5477     3.0448     2.9542 H       
  35 H35            3.8371    -0.7129    -0.1370 H       
  36 H36            4.7975     0.5204    -0.9885 H       
  37 H37            5.5860    -0.9501    -0.3686 H       
  38 H38            5.9122     2.4391    -0.0154 H       
  39 H39            4.9495     3.8229    -0.5869 H       
  40 H40            5.3665     3.6804     1.1377 H       
@<TRIPOS>BOND
   1    1    2 1
   2    1   22 1
   3    1   23 1
   4    2    3 ar
   5    2    7 ar
   6    3    4 ar
   7    3    8 1
   8    4    5 ar
   9    4   24 1
  10    5    6 ar
  11    5   25 1
  12    6    7 ar
  13    6   21 1
  14    7   26 1
  15    8    9 1
  16    8   27 1
  17    8   28 1
  18    9   10 1
  19    9   29 1
  20   10   11 1
  21   10   17 1
  22   10   19 1
  23   11   12 ar
  24   11   16 ar
  25   12   13 ar
  26   12   30 1
  27   13   14 ar
  28   13   31 1
  29   14   15 ar
  30   14   32 1
  31   15   16 ar
  32   15   33 1
  33   16   34 1
  34   17   18 1
  35   18   35 1
  36   18   36 1
  37   18   37 1
  38   19   20 1
  39   20   38 1
  40   20   39 1
  41   20   40 1

#	End of record

