#	Name: ASD01410341
#	Creating user name:	WinNT
#	Creation time:	15. 06. 2019 19:17

#	Modifying user name:	WinNT
#	Modification time:	15. 06. 2019 19:17

#	Program:	/corina/corina34_cracker 3.40 0067  02.08.2006

@<TRIPOS>MOLECULE
ASD01410341
  55   58    0    0    0
SMALL
NO_CHARGES


@<TRIPOS>ATOM
   1 O1            -0.0162     1.3436     0.0094 O.3     
   2 C2             0.0021    -0.0041     0.0020 C.2     
   3 C3             1.3036    -0.4093    -0.0126 C.2     
   4 C4             2.0909     0.7574    -0.0138 C.2     
   5 C5             1.2441     1.8068    -0.0001 C.2     
   6 N6            -1.3475    -1.9928    -0.7887 N.pl3   
   7 C7            -1.1764    -0.8839     0.0085 C.2     
   8 C8            -2.2702    -0.7304     0.8044 C.2     
   9 C9            -3.1727    -1.7773     0.5063 C.ar    
  10 C10           -2.5748    -2.5584    -0.5045 C.ar    
  11 C11           -4.4391    -2.1235     1.0021 C.ar    
  12 C12           -5.0871    -3.2149     0.5122 C.ar    
  13 C13           -4.4972    -4.0016    -0.4891 C.ar    
  14 C14           -3.2422    -3.6670    -0.9983 C.ar    
  15 C15           -3.7331     1.1621     1.4580 C.3     
  16 C16           -3.9477     2.2701     2.4911 C.3     
  17 C17           -4.1258     1.6474     3.8773 C.3     
  18 C18           -2.8741     0.8463     4.2411 C.3     
  19 C19           -2.6596    -0.2617     3.2081 C.3     
  20 C20           -2.4815     0.3609     1.8219 C.3     
  21 C21           -0.3886    -2.4877    -1.7796 C.3     
  22 C22            0.5507    -3.4671    -1.1242 C.2     
  23 O23            0.4310    -3.7262     0.0546 O.2     
  24 C24            2.4370    -5.0071    -1.2107 C.3     
  25 N25            1.5239    -4.0550    -1.8479 N.am    
  26 C26            1.6685    -3.7421    -3.2717 C.3     
  27 C27           -5.2095    -5.1815    -1.0100 C.2     
  28 O28           -4.7009    -5.8645    -1.8771 O.2     
  29 O29           -6.4251    -5.5033    -0.5250 O.3     
  30 H30            1.6613    -1.4283    -0.0209 H       
  31 H31            3.1699     0.8035    -0.0236 H       
  32 H32            1.5319     2.8477     0.0024 H       
  33 H33           -4.8994    -1.5234     1.7731 H       
  34 H34           -6.0616    -3.4777     0.8966 H       
  35 H35           -2.7902    -4.2736    -1.7691 H       
  36 H36           -4.5989     0.4999     1.4504 H       
  37 H37           -3.6063     1.6057     0.4705 H       
  38 H38           -3.0819     2.9323     2.4987 H       
  39 H39           -4.8394     2.8408     2.2319 H       
  40 H40           -4.2786     2.4368     4.6132 H       
  41 H41           -4.9915     0.9852     3.8696 H       
  42 H42           -2.0083     1.5085     4.2488 H       
  43 H43           -3.0010     0.4027     5.2287 H       
  44 H44           -1.7679    -0.8325     3.4673 H       
  45 H45           -3.5253    -0.9239     3.2004 H       
  46 H46           -1.6157     1.0231     1.8295 H       
  47 H47           -0.9252    -2.9843    -2.5880 H       
  48 H48            0.1821    -1.6510    -2.1825 H       
  49 H49            3.1504    -5.3753    -1.9479 H       
  50 H50            2.9736    -4.5105    -0.4023 H       
  51 H51            1.8663    -5.8439    -0.8078 H       
  52 H52            1.0651    -4.4343    -3.8590 H       
  53 H53            1.3327    -2.7215    -3.4554 H       
  54 H54            2.7153    -3.8377    -3.5602 H       
  55 H55           -6.8534    -6.2860    -0.8978 H       
@<TRIPOS>BOND
   1    1    2 1
   2    1    5 1
   3    2    3 2
   4    2    7 1
   5    3    4 1
   6    3   30 1
   7    4    5 2
   8    4   31 1
   9    5   32 1
  10    6    7 1
  11    6   21 1
  12    6   10 1
  13    7    8 2
  14    8    9 1
  15    8   20 1
  16    9   10 ar
  17    9   11 ar
  18   10   14 ar
  19   11   12 ar
  20   11   33 1
  21   12   13 ar
  22   12   34 1
  23   13   14 ar
  24   13   27 1
  25   14   35 1
  26   15   16 1
  27   15   20 1
  28   15   36 1
  29   15   37 1
  30   16   17 1
  31   16   38 1
  32   16   39 1
  33   17   18 1
  34   17   40 1
  35   17   41 1
  36   18   19 1
  37   18   42 1
  38   18   43 1
  39   19   20 1
  40   19   44 1
  41   19   45 1
  42   20   46 1
  43   21   22 1
  44   21   47 1
  45   21   48 1
  46   22   23 2
  47   22   25 am
  48   24   25 1
  49   24   49 1
  50   24   50 1
  51   24   51 1
  52   25   26 1
  53   26   52 1
  54   26   53 1
  55   26   54 1
  56   27   28 2
  57   27   29 1
  58   29   55 1

#	End of record

