#	Name: ASD01410024
#	Creating user name:	WinNT
#	Creation time:	15. 06. 2019 19:16

#	Modifying user name:	WinNT
#	Modification time:	15. 06. 2019 19:16

#	Program:	/corina/corina34_cracker 3.40 0067  02.08.2006

@<TRIPOS>MOLECULE
ASD01410024
  37   38    0    0    0
SMALL
NO_CHARGES


@<TRIPOS>ATOM
   1 C1            -0.0269     1.4102    -0.0667 C.ar    
   2 C2            -0.0039     0.0234    -0.0688 C.ar    
   3 C3            -1.1884    -0.6870    -0.0485 C.ar    
   4 C4            -2.4007    -0.0136    -0.0260 C.ar    
   5 C5            -2.4236     1.3732    -0.0244 C.ar    
   6 C6            -1.2391     2.0836    -0.0384 C.ar    
   7 O7            -3.5667    -0.7129    -0.0061 O.3     
   8 C8            -4.7777     0.0454     0.0165 C.3     
   9 C9            -5.9573    -0.8923     0.0364 C.2     
  10 N10           -7.2109    -0.3979     0.0594 N.am    
  11 C11           -8.3009    -1.2593    -0.0354 C.ar    
  12 C12           -8.2227    -2.3993    -0.8235 C.ar    
  13 C13           -9.3046    -3.2520    -0.9161 C.ar    
  14 C14          -10.4740    -2.9789    -0.2254 C.ar    
  15 C15          -10.5704    -1.8519     0.5620 C.ar    
  16 C16           -9.4823    -0.9823     0.6700 C.ar    
  17 O17           -5.7785    -2.0918     0.0317 O.2     
  18 C18           -9.5783     0.2245     1.5106 C.2     
  19 O19          -10.7496     0.5488     2.0926 O.3     
  20 O20           -8.6012     0.9270     1.6789 O.2     
  21 O21            1.1391     2.1095    -0.0867 O.3     
  22 C22            1.0407     3.5351    -0.0831 C.3     
  23 H23            0.9400    -0.5010    -0.0867 H       
  24 H24           -1.1705    -1.7669    -0.0505 H       
  25 H25           -3.3676     1.8976    -0.0076 H       
  26 H26           -1.2569     3.1635    -0.0367 H       
  27 H27           -4.7971     0.6726     0.9077 H       
  28 H28           -4.8289     0.6748    -0.8720 H       
  29 H29           -7.3538     0.5579     0.1420 H       
  30 H30           -7.3146    -2.6193    -1.3651 H       
  31 H31           -9.2389    -4.1373    -1.5312 H       
  32 H32          -11.3145    -3.6525    -0.3047 H       
  33 H33          -11.4845    -1.6435     1.0981 H       
  34 H34          -10.7636     1.3494     2.6349 H       
  35 H35            0.4873     3.8633    -0.9629 H       
  36 H36            0.5191     3.8611     0.8167 H       
  37 H37            2.0408     3.9684    -0.1005 H       
@<TRIPOS>BOND
   1    1    2 ar
   2    1   21 1
   3    1    6 ar
   4    2    3 ar
   5    2   23 1
   6    3    4 ar
   7    3   24 1
   8    4    5 ar
   9    4    7 1
  10    5    6 ar
  11    5   25 1
  12    6   26 1
  13    7    8 1
  14    8    9 1
  15    8   27 1
  16    8   28 1
  17    9   10 am
  18    9   17 2
  19   10   11 1
  20   10   29 1
  21   11   12 ar
  22   11   16 ar
  23   12   13 ar
  24   12   30 1
  25   13   14 ar
  26   13   31 1
  27   14   15 ar
  28   14   32 1
  29   15   16 ar
  30   15   33 1
  31   16   18 1
  32   18   19 1
  33   18   20 2
  34   19   34 1
  35   21   22 1
  36   22   35 1
  37   22   36 1
  38   22   37 1

#	End of record

