#	Name: ASD01209148
#	Creating user name:	WinNT
#	Creation time:	15. 06. 2019 19:11

#	Modifying user name:	WinNT
#	Modification time:	15. 06. 2019 19:11

#	Program:	/corina/corina34_cracker 3.40 0067  02.08.2006

@<TRIPOS>MOLECULE
ASD01209148
  73   76    0    0    0
SMALL
NO_CHARGES


@<TRIPOS>ATOM
   1 C1             0.0952     1.2280     0.1058 C.ar    
   2 C2             0.2566    -0.0066     0.7163 C.ar    
   3 C3            -0.8239    -0.8795     0.8247 C.ar    
   4 C4            -2.0671    -0.5125     0.3196 C.ar    
   5 C5            -2.2277     0.7289    -0.2939 C.ar    
   6 C6            -1.1421     1.6009    -0.3939 C.ar    
   7 O7             1.1518     2.0763     0.0022 O.3     
   8 C8             1.9488     1.9719    -1.0934 C.ar    
   9 C9            -0.6485    -2.2005     1.4782 C.ar    
  10 C10            0.5951    -2.5696     1.9838 C.ar    
  11 C11           -3.5465     1.1235    -0.8327 C.2     
  12 N12           -3.7004     2.3240    -1.4256 N.am    
  13 O13           -4.4921     0.3652    -0.7410 O.2     
  14 C14           -4.9395     2.6948    -1.9319 C.2     
  15 P15           -6.6379     5.0962    -5.4279 P.3     
  16 O16           -5.2311     4.7310    -5.7070 O.2     
  17 C17           -6.8739     5.2751    -3.6291 C.3     
  18 S18           -6.3503     1.7310    -1.8713 S.3     
  19 N19           -5.1960     3.8244    -2.5142 N.2     
  20 C20           -6.4324     4.0116    -2.9365 C.2     
  21 C21           -7.2605     2.9928    -2.6979 C.2     
  22 O22           -6.9851     6.4896    -6.1559 O.3     
  23 O23           -7.6126     3.9422    -5.9850 O.3     
  24 C24            3.0995     2.7410    -1.1916 C.ar    
  25 C25           -6.7985     6.7037    -7.5564 C.3     
  26 C26           -7.2252     8.1283    -7.9159 C.3     
  27 C27           -7.5897     3.4915    -7.3408 C.3     
  28 C28           -8.6378     2.3932    -7.5310 C.3     
  29 C29            0.7524    -3.8039     2.5932 C.ar    
  30 C30           -0.3280    -4.6687     2.6984 C.ar    
  31 C31           -1.5629    -4.3027     2.1961 C.ar    
  32 C32           -1.7296    -3.0726     1.5926 C.ar    
  33 C33            3.9082     2.6326    -2.3062 C.ar    
  34 C34            3.5716     1.7589    -3.3238 C.ar    
  35 C35            2.4252     0.9917    -3.2286 C.ar    
  36 C36            1.6163     1.0918    -2.1133 C.ar    
  37 S37            4.6051     1.6235    -4.7444 S.o2    
  38 C38            5.7886     0.3159    -4.3202 C.3     
  39 O39            3.7289     1.1879    -5.7749 O.2     
  40 O40            5.2597     2.8823    -4.8229 O.2     
  41 O41            1.9648    -4.1679     3.0876 O.3     
  42 C42            2.0548    -5.4546     3.7029 C.3     
  43 F43            1.7170    -6.4418     2.7709 F       
  44 F44            3.3625    -5.6659     4.1528 F       
  45 F45            1.1730    -5.5156     4.7872 F       
  46 H46            1.2216    -0.2920     1.1083 H       
  47 H47           -2.9058    -1.1879     0.4024 H       
  48 H48           -1.2647     2.5632    -0.8685 H       
  49 H49            1.4350    -1.8957     1.9009 H       
  50 H50           -2.9458     2.9291    -1.4988 H       
  51 H51           -6.2807     6.1145    -3.2666 H       
  52 H52           -7.9276     5.4564    -3.4172 H       
  53 H53           -8.3067     2.9503    -2.9626 H       
  54 H54            3.3625     3.4241    -0.3974 H       
  55 H55           -5.7471     6.5648    -7.8083 H       
  56 H56           -7.4035     5.9909    -8.1167 H       
  57 H57           -8.2766     8.2672    -7.6641 H       
  58 H58           -6.6202     8.8411    -7.3556 H       
  59 H59           -7.0828     8.2916    -8.9842 H       
  60 H60           -7.8135     4.3263    -8.0050 H       
  61 H61           -6.6017     3.0954    -7.5754 H       
  62 H62           -8.6203     2.0494    -8.5652 H       
  63 H63           -8.4140     1.5585    -6.8668 H       
  64 H64           -9.6258     2.7894    -7.2964 H       
  65 H65           -0.2036    -5.6304     3.1738 H       
  66 H66           -2.4005    -4.9793     2.2801 H       
  67 H67           -2.6956    -2.7895     1.2012 H       
  68 H68            4.8040     3.2310    -2.3832 H       
  69 H69            2.1644     0.3104    -4.0249 H       
  70 H70            0.7210     0.4923    -2.0395 H       
  71 H71            5.2502    -0.6102    -4.1189 H       
  72 H72            6.4753     0.1633    -5.1528 H       
  73 H73            6.3515     0.6088    -3.4340 H       
@<TRIPOS>BOND
   1    1    2 ar
   2    1    7 1
   3    1    6 ar
   4    2    3 ar
   5    2   46 1
   6    3    4 ar
   7    3    9 1
   8    4    5 ar
   9    4   47 1
  10    5    6 ar
  11    5   11 1
  12    6   48 1
  13    7    8 1
  14    8   24 ar
  15    8   36 ar
  16    9   10 ar
  17    9   32 ar
  18   10   29 ar
  19   10   49 1
  20   11   12 am
  21   11   13 2
  22   12   14 1
  23   12   50 1
  24   14   18 1
  25   14   19 2
  26   15   16 2
  27   15   22 1
  28   15   17 1
  29   15   23 1
  30   17   20 1
  31   17   51 1
  32   17   52 1
  33   18   21 1
  34   19   20 1
  35   20   21 2
  36   21   53 1
  37   22   25 1
  38   23   27 1
  39   24   33 ar
  40   24   54 1
  41   25   26 1
  42   25   55 1
  43   25   56 1
  44   26   57 1
  45   26   58 1
  46   26   59 1
  47   27   28 1
  48   27   60 1
  49   27   61 1
  50   28   62 1
  51   28   63 1
  52   28   64 1
  53   29   30 ar
  54   29   41 1
  55   30   31 ar
  56   30   65 1
  57   31   32 ar
  58   31   66 1
  59   32   67 1
  60   33   34 ar
  61   33   68 1
  62   34   35 ar
  63   34   37 1
  64   35   36 ar
  65   35   69 1
  66   36   70 1
  67   37   38 1
  68   37   39 2
  69   37   40 2
  70   38   71 1
  71   38   72 1
  72   38   73 1
  73   41   42 1
  74   42   43 1
  75   42   44 1
  76   42   45 1

#	End of record

