#	Name: ASD01151038
#	Creating user name:	WinNT
#	Creation time:	15. 06. 2019 19:05

#	Modifying user name:	WinNT
#	Modification time:	15. 06. 2019 19:05

#	Program:	/corina/corina34_cracker 3.40 0067  02.08.2006

@<TRIPOS>MOLECULE
ASD01151038
  42   41    0    0    0
SMALL
NO_CHARGES


@<TRIPOS>ATOM
   1 C1             0.4458     3.0004    -1.4365 C.2     
   2 C2             0.2261     1.7240    -1.2399 C.2     
   3 C3             1.3815     0.7913    -0.9829 C.3     
   4 C4             1.4194    -0.2853    -2.0694 C.3     
   5 C5             2.5135    -1.3031    -1.7409 C.3     
   6 C6             2.5507    -2.3635    -2.8110 C.2     
   7 C7             3.6504    -2.5674    -3.4931 C.2     
   8 C8             3.7358    -3.7224    -4.4573 C.3     
   9 C9             3.3855    -3.2381    -5.8657 C.3     
  10 C10            3.4709    -4.3931    -6.8299 C.2     
  11 C11            2.4391    -4.7014    -7.5757 C.2     
  12 C12            1.1238    -3.9947    -7.3717 C.3     
  13 C13            2.5673    -5.7629    -8.6378 C.3     
  14 C14            4.8300    -1.6469    -3.3136 C.3     
  15 O15            2.6041     1.5309    -1.0024 O.3     
  16 C16            1.2079     0.1291     0.3854 C.3     
  17 H17            1.4550     3.3843    -1.4143 H       
  18 H18           -0.3819     3.6680    -1.6251 H       
  19 H19           -0.7832     1.3401    -1.2620 H       
  20 H20            0.4546    -0.7906    -2.1139 H       
  21 H21            1.6316     0.1781    -3.0328 H       
  22 H22            3.4782    -0.7978    -1.6963 H       
  23 H23            2.3012    -1.7665    -0.7774 H       
  24 H24            1.6708    -2.9554    -3.0156 H       
  25 H25            4.7487    -4.1251    -4.4530 H       
  26 H26            3.0343    -4.5002    -4.1556 H       
  27 H27            2.3726    -2.8354    -5.8700 H       
  28 H28            4.0870    -2.4603    -6.1674 H       
  29 H29            4.3829    -4.9667    -6.9060 H       
  30 H30            1.1244    -3.0579    -7.9289 H       
  31 H31            0.3117    -4.6286    -7.7276 H       
  32 H32            0.9840    -3.7864    -6.3109 H       
  33 H33            3.5834    -6.1574    -8.6364 H       
  34 H34            1.8639    -6.5697    -8.4318 H       
  35 H35            2.3473    -5.3292    -9.6133 H       
  36 H36            5.4454    -2.0019    -2.4869 H       
  37 H37            5.4228    -1.6334    -4.2282 H       
  38 H38            4.4750    -0.6396    -3.0959 H       
  39 H39            2.7798     1.9783    -1.8415 H       
  40 H40            0.2753    -0.4350     0.4003 H       
  41 H41            2.0436    -0.5455     0.5713 H       
  42 H42            1.1809     0.8961     1.1594 H       
@<TRIPOS>BOND
   1    1    2 2
   2    1   17 1
   3    1   18 1
   4    2    3 1
   5    2   19 1
   6    3    4 1
   7    3   15 1
   8    3   16 1
   9    4    5 1
  10    4   20 1
  11    4   21 1
  12    5    6 1
  13    5   22 1
  14    5   23 1
  15    6    7 2
  16    6   24 1
  17    7    8 1
  18    7   14 1
  19    8    9 1
  20    8   25 1
  21    8   26 1
  22    9   10 1
  23    9   27 1
  24    9   28 1
  25   10   11 2
  26   10   29 1
  27   11   12 1
  28   11   13 1
  29   12   30 1
  30   12   31 1
  31   12   32 1
  32   13   33 1
  33   13   34 1
  34   13   35 1
  35   14   36 1
  36   14   37 1
  37   14   38 1
  38   15   39 1
  39   16   40 1
  40   16   41 1
  41   16   42 1

#	End of record

