#	Name: ASD01148570
#	Creating user name:	WinNT
#	Creation time:	15. 06. 2019 19:02

#	Modifying user name:	WinNT
#	Modification time:	15. 06. 2019 19:02

#	Program:	/corina/corina34_cracker 3.40 0067  02.08.2006

@<TRIPOS>MOLECULE
ASD01148570
  55   59    0    0    0
SMALL
NO_CHARGES


@<TRIPOS>ATOM
   1 C1            -0.0169     1.4375    -0.0252 C.ar    
   2 C2             0.0192     0.0536    -0.0359 C.ar    
   3 C3            -1.1616    -0.6687    -0.0207 C.ar    
   4 C4            -2.3763    -0.0072     0.0050 C.ar    
   5 C5            -2.4112     1.3746     0.0152 C.ar    
   6 C6            -1.2326     2.0969     0.0064 C.ar    
   7 C7            -3.7350     2.0942     0.0423 C.3     
   8 O8            -4.7252     1.3265     0.7562 O.3     
   9 C9            -3.6502     3.3776     0.9025 C.3     
  10 C10           -4.1246     2.8962     2.2606 C.2     
  11 N11           -4.7069     1.7532     2.1040 N.2     
  12 C12           -3.9507     3.6086     3.5380 C.ar    
  13 C13           -4.4589     3.0283     4.7786 C.ar    
  14 C14           -3.2978     4.8330     3.5718 C.ar    
  15 C15           -3.1201     5.5235     4.7575 C.ar    
  16 C16           -3.5870     5.0218     5.9644 C.ar    
  17 C17           -4.2772     3.7346     5.9912 C.ar    
  18 C18           -3.3828     5.7803     7.2120 C.2     
  19 O19           -3.8846     5.3912     8.2492 O.2     
  20 N20           -2.6401     6.9049     7.2031 N.am    
  21 C21           -4.2096     2.4154    -1.3764 C.3     
  22 F22           -4.3426     1.2278    -2.1037 F       
  23 F23           -5.4459     3.0675    -1.3181 F       
  24 F24           -3.2741     3.2446    -2.0045 F       
  25 Cl25          -1.1182    -2.4041    -0.0347 Cl      
  26 Cl26           1.5442    -0.7753    -0.0688 Cl      
  27 Cl27           1.4629     2.3449    -0.0442 Cl      
  28 C28           -2.4372     7.6586     8.4428 C.3     
  29 C29           -1.5771     8.8639     8.1629 C.ar    
  30 N30           -0.2641     8.7428     8.1671 N.ar    
  31 C31            0.5279     9.7697     7.9275 C.ar    
  32 C32            0.0032    11.0201     7.6618 C.ar    
  33 C33           -1.3734    11.1865     7.6488 C.ar    
  34 C34           -2.1738    10.0826     7.8991 C.ar    
  35 C35           -5.1188     1.7928     4.7927 C.ar    
  36 C36           -4.7645     3.1897     7.1859 C.ar    
  37 C37           -5.5767     1.2876     5.9732 C.ar    
  38 C38           -5.4024     1.9850     7.1656 C.ar    
  39 H39           -3.2977    -0.5705     0.0168 H       
  40 H40           -1.2610     3.1765     0.0148 H       
  41 H41           -2.6236     3.7395     0.9573 H       
  42 H42           -4.3135     4.1495     0.5123 H       
  43 H43           -2.9200     5.2557     2.6525 H       
  44 H44           -2.6066     6.4735     4.7437 H       
  45 H45           -2.2398     7.2152     6.3758 H       
  46 H46           -3.4019     7.9833     8.8327 H       
  47 H47           -1.9436     7.0229     9.1779 H       
  48 H48            1.5990     9.6319     7.9395 H       
  49 H49            0.6571    11.8574     7.4671 H       
  50 H50           -1.8117    12.1522     7.4445 H       
  51 H51           -3.2498    10.1754     7.8965 H       
  52 H52           -5.2641     1.2440     3.8740 H       
  53 H53           -4.6353     3.7204     8.1176 H       
  54 H54           -6.0854     0.3349     5.9830 H       
  55 H55           -5.7778     1.5657     8.0874 H       
@<TRIPOS>BOND
   1    1    2 ar
   2    1   27 1
   3    1    6 ar
   4    2    3 ar
   5    2   26 1
   6    3    4 ar
   7    3   25 1
   8    4    5 ar
   9    4   39 1
  10    5    6 ar
  11    5    7 1
  12    6   40 1
  13    7    8 1
  14    7    9 1
  15    7   21 1
  16    8   11 1
  17    9   10 1
  18    9   41 1
  19    9   42 1
  20   10   11 2
  21   10   12 1
  22   12   13 ar
  23   12   14 ar
  24   13   35 ar
  25   13   17 ar
  26   14   15 ar
  27   14   43 1
  28   15   16 ar
  29   15   44 1
  30   16   17 ar
  31   16   18 1
  32   17   36 ar
  33   18   19 2
  34   18   20 am
  35   20   28 1
  36   20   45 1
  37   21   22 1
  38   21   23 1
  39   21   24 1
  40   28   29 1
  41   28   46 1
  42   28   47 1
  43   29   30 ar
  44   29   34 ar
  45   30   31 ar
  46   31   32 ar
  47   31   48 1
  48   32   33 ar
  49   32   49 1
  50   33   34 ar
  51   33   50 1
  52   34   51 1
  53   35   37 ar
  54   35   52 1
  55   36   38 ar
  56   36   53 1
  57   37   38 ar
  58   37   54 1
  59   38   55 1

#	End of record

