#	Name: ASD01810140
#	Creating user name:	WinNT
#	Creation time:	15. 06. 2019 19:23

#	Modifying user name:	WinNT
#	Modification time:	15. 06. 2019 19:23

#	Program:	/corina/corina34_cracker 3.40 0067  02.08.2006

@<TRIPOS>MOLECULE
ASD01810140
  38   41    0    0    0
SMALL
NO_CHARGES


@<TRIPOS>ATOM
   1 C1            -0.1794     1.1753    -0.5101 C.ar    
   2 C2            -0.0861    -0.2077    -0.4778 C.ar    
   3 C3             1.1376    -0.8290    -0.3329 C.ar    
   4 C4             2.2976    -0.0651    -0.2175 C.ar    
   5 C5             2.2016     1.3365    -0.2509 C.ar    
   6 C6             0.9561     1.9523    -0.3977 C.ar    
   7 N7             3.5261    -0.6746    -0.0718 N.pl3   
   8 C8             4.6683     0.0143     0.0438 C.2     
   9 C9             4.7000     1.3941     0.0248 C.2     
  10 C10            3.4356     2.1325    -0.1279 C.2     
  11 O11            3.4104     3.3507    -0.1505 O.2     
  12 C12            5.9745     2.1140     0.1550 C.2     
  13 O13            5.9924     3.4618     0.1351 O.3     
  14 O14            7.0127     1.4941     0.2806 O.2     
  15 C15            3.5837    -2.1382    -0.0416 C.3     
  16 C16            3.0107    -2.7859     1.1926 C.ar    
  17 C17            3.4183    -2.8792    -1.3699 C.3     
  18 C18            4.7914    -2.8113    -0.6968 C.3     
  19 C19            2.7305    -2.0198     2.3086 C.ar    
  20 C20            2.2050    -2.6139     3.4407 C.ar    
  21 C21            1.9592    -3.9741     3.4567 C.ar    
  22 C22            2.2385    -4.7401     2.3404 C.ar    
  23 C23            2.7600    -4.1453     1.2067 C.ar    
  24 F24            0.8636     3.2997    -0.4302 F       
  25 F25            1.2111    -2.1777    -0.3025 F       
  26 H26           -1.1439     1.6465    -0.6282 H       
  27 H27           -0.9812    -0.8054    -0.5667 H       
  28 H28            5.5958    -0.5276     0.1558 H       
  29 H29            6.8545     3.8908     0.2240 H       
  30 H30            2.8953    -3.8354    -1.3510 H       
  31 H31            3.2666    -2.2778    -2.2662 H       
  32 H32            5.5429    -2.1653    -1.1506 H       
  33 H33            5.1713    -3.7228    -0.2354 H       
  34 H34            2.9226    -0.9570     2.2961 H       
  35 H35            1.9868    -2.0154     4.3128 H       
  36 H36            1.5492    -4.4384     4.3414 H       
  37 H37            2.0467    -5.8029     2.3529 H       
  38 H38            2.9782    -4.7437     0.3346 H       
@<TRIPOS>BOND
   1    1    2 ar
   2    1    6 ar
   3    1   26 1
   4    2    3 ar
   5    2   27 1
   6    3    4 ar
   7    3   25 1
   8    4    5 ar
   9    4    7 1
  10    5    6 ar
  11    5   10 1
  12    6   24 1
  13    7    8 1
  14    7   15 1
  15    8    9 2
  16    8   28 1
  17    9   10 1
  18    9   12 1
  19   10   11 2
  20   12   13 1
  21   12   14 2
  22   13   29 1
  23   15   16 1
  24   15   17 1
  25   15   18 1
  26   16   19 ar
  27   16   23 ar
  28   17   18 1
  29   17   30 1
  30   17   31 1
  31   18   32 1
  32   18   33 1
  33   19   20 ar
  34   19   34 1
  35   20   21 ar
  36   20   35 1
  37   21   22 ar
  38   21   36 1
  39   22   23 ar
  40   22   37 1
  41   23   38 1

#	End of record

