#	Name: ASD01880601
#	Creating user name:	WinNT
#	Creation time:	15. 06. 2019 19:41

#	Modifying user name:	WinNT
#	Modification time:	15. 06. 2019 19:41

#	Program:	/corina/corina34_cracker 3.40 0067  02.08.2006

@<TRIPOS>MOLECULE
ASD01880601
  49   52    0    0    0
SMALL
NO_CHARGES


@<TRIPOS>ATOM
   1 N1             0.0644     1.3751    -0.6398 N.ar    
   2 C2             0.1102     0.0792    -0.8731 C.ar    
   3 N3             1.2171    -0.6175    -0.7109 N.ar    
   4 C4             2.3360    -0.0347    -0.3035 C.ar    
   5 C5             2.3331     1.3252    -0.0471 C.ar    
   6 C6             1.1451     2.0299    -0.2289 C.ar    
   7 C7             3.5835     2.0262     0.4180 C.3     
   8 O8             4.3194     2.4899    -0.7158 O.3     
   9 C9             5.4806     3.1477    -0.4695 C.ar    
  10 C10            6.2465     3.6259    -1.5283 C.ar    
  11 C11            7.4207     4.2915    -1.2778 C.ar    
  12 C12            7.8537     4.4928     0.0370 C.ar    
  13 C13            7.0804     4.0107     1.0967 C.ar    
  14 C14            5.9008     3.3480     0.8400 C.ar    
  15 C15            8.4613     4.9215    -2.1698 C.3     
  16 N16            9.4844     5.4771    -1.2767 N.am    
  17 C17            9.1299     5.2275    -0.0045 C.2     
  18 O18            9.7711     5.5611     0.9732 O.2     
  19 Br19           3.9157    -1.0488    -0.0750 Br      
  20 O20            1.0928     3.3631     0.0088 O.3     
  21 C21           -0.1147     3.9802    -0.0809 C.ar    
  22 C22           -1.0458     3.8368     0.9377 C.ar    
  23 C23           -2.2722     4.4656     0.8443 C.ar    
  24 C24           -2.5725     5.2369    -0.2633 C.ar    
  25 C25           -1.6463     5.3814    -1.2797 C.ar    
  26 C26           -0.4163     4.7594    -1.1886 C.ar    
  27 C27           11.6594     8.4250    -2.2490 C.3     
  28 C28           10.3965     7.6839    -1.8051 C.3     
  29 C29           10.6936     6.1866    -1.7018 C.3     
  30 H30           -0.7842    -0.4263    -1.2062 H       
  31 H31            3.3121     2.8742     1.0467 H       
  32 H32            4.1979     1.3314     0.9906 H       
  33 H33            5.9178     3.4734    -2.5457 H       
  34 H34            7.4059     4.1605     2.1156 H       
  35 H35            5.3035     2.9760     1.6593 H       
  36 H36            8.9024     4.1673    -2.8216 H       
  37 H37            8.0125     5.7162    -2.7657 H       
  38 H38           -0.8120     3.2339     1.8027 H       
  39 H39           -2.9973     4.3543     1.6369 H       
  40 H40           -3.5322     5.7271    -0.3347 H       
  41 H41           -1.8833     5.9845    -2.1438 H       
  42 H42            0.3068     4.8726    -1.9828 H       
  43 H43           11.4477     9.4917    -2.3226 H       
  44 H44           12.4522     8.2613    -1.5191 H       
  45 H45           11.9778     8.0498    -3.2216 H       
  46 H46           10.0781     8.0591    -0.8325 H       
  47 H47            9.6037     7.8476    -2.5350 H       
  48 H48           11.4864     6.0230    -0.9719 H       
  49 H49           11.0120     5.8114    -2.6744 H       
@<TRIPOS>BOND
   1    1    2 ar
   2    1    6 ar
   3    2    3 ar
   4    2   30 1
   5    3    4 ar
   6    4    5 ar
   7    4   19 1
   8    5    6 ar
   9    5    7 1
  10    6   20 1
  11    7    8 1
  12    7   31 1
  13    7   32 1
  14    8    9 1
  15    9   10 ar
  16    9   14 ar
  17   10   11 ar
  18   10   33 1
  19   11   12 ar
  20   11   15 1
  21   12   13 ar
  22   12   17 1
  23   13   14 ar
  24   13   34 1
  25   14   35 1
  26   15   16 1
  27   15   36 1
  28   15   37 1
  29   16   17 am
  30   16   29 1
  31   17   18 2
  32   20   21 1
  33   21   22 ar
  34   21   26 ar
  35   22   23 ar
  36   22   38 1
  37   23   24 ar
  38   23   39 1
  39   24   25 ar
  40   24   40 1
  41   25   26 ar
  42   25   41 1
  43   26   42 1
  44   27   28 1
  45   27   43 1
  46   27   44 1
  47   27   45 1
  48   28   29 1
  49   28   46 1
  50   28   47 1
  51   29   48 1
  52   29   49 1

#	End of record

