#	Name: ASD01150856
#	Creating user name:	WinNT
#	Creation time:	15. 06. 2019 19:05

#	Modifying user name:	WinNT
#	Modification time:	15. 06. 2019 19:05

#	Program:	/corina/corina34_cracker 3.40 0067  02.08.2006

@<TRIPOS>MOLECULE
ASD01150856
  61   63    0    0    0
SMALL
NO_CHARGES


@<TRIPOS>ATOM
   1 C1            -0.0169     1.3918     0.0097 C.ar    
   2 C2             0.0021    -0.0041     0.0020 C.ar    
   3 C3             1.2238    -0.6793    -0.0133 C.ar    
   4 C4             2.4035     0.0358    -0.0207 C.ar    
   5 C5             2.3776     1.4191    -0.0126 C.ar    
   6 C6             1.1702     2.0946     0.0021 C.ar    
   7 C7            -1.2658    -0.7636     0.0105 C.2     
   8 N8            -1.2441    -2.1112     0.0031 N.am    
   9 O9            -2.3280    -0.1730     0.0243 O.2     
  10 C10           -2.4364    -2.8256     0.0111 C.2     
  11 N11           -3.6658    -2.3048     0.0256 N.2     
  12 C12           -4.5639    -3.2687     0.0291 C.2     
  13 N13           -3.9332    -4.4713     0.0166 N.pl3   
  14 C14           -2.5623    -4.2091    -0.0007 C.2     
  15 S15           -6.3101    -3.0341     0.0470 S.3     
  16 C16           -6.3842    -1.2256     0.0566 C.3     
  17 C17           -4.5698    -5.7908     0.0156 C.3     
  18 C18           -1.5180    -5.1556    -0.0177 C.2     
  19 O19           -1.8030    -6.4757    -0.0184 O.3     
  20 O20           -0.3586    -4.7829    -0.0318 O.2     
  21 C21           -0.6955    -7.3785    -0.0362 C.3     
  22 C22           -1.2116    -8.8188    -0.0342 C.3     
  23 C23            3.6704     2.1936    -0.0197 C.3     
  24 C24            4.4673     1.8441    -1.2782 C.3     
  25 C25            3.3666     3.6931    -0.0085 C.3     
  26 C26            4.4897     1.8299     1.2201 C.3     
  27 C27           -4.8010    -6.2359    -1.4055 C.ar    
  28 C28           -3.8289    -6.9601    -2.0698 C.ar    
  29 C29           -4.0410    -7.3684    -3.3733 C.ar    
  30 C30           -5.2254    -7.0528    -4.0124 C.ar    
  31 C31           -6.1979    -6.3293    -3.3478 C.ar    
  32 C32           -5.9876    -5.9248    -2.0428 C.ar    
  33 H33           -0.9587     1.9202     0.0170 H       
  34 H34            1.2454    -1.7591    -0.0189 H       
  35 H35            3.3494    -0.4854    -0.0325 H       
  36 H36            1.1569     3.1745     0.0081 H       
  37 H37           -0.3963    -2.5826    -0.0079 H       
  38 H38           -5.8943    -0.8372    -0.8362 H       
  39 H39           -7.4259    -0.9047     0.0682 H       
  40 H40           -5.8772    -0.8459     0.9437 H       
  41 H41           -3.9214    -6.5074     0.5198 H       
  42 H42           -5.5245    -5.7341     0.5385 H       
  43 H43           -0.1011    -7.2067    -0.9335 H       
  44 H44           -0.0775    -7.2128     0.8463 H       
  45 H45           -0.3668    -9.5075    -0.0477 H       
  46 H46           -1.8060    -8.9906     0.8632 H       
  47 H47           -1.8296    -8.9845    -0.9166 H       
  48 H48            3.8835     2.1033    -2.1615 H       
  49 H49            5.4023     2.4043    -1.2834 H       
  50 H50            4.6837     0.7759    -1.2863 H       
  51 H51            2.7989     3.9421     0.8881 H       
  52 H52            4.3016     4.2533    -0.0136 H       
  53 H53            2.7829     3.9522    -0.8918 H       
  54 H54            4.7061     0.7616     1.2121 H       
  55 H55            5.4247     2.3900     1.2149 H       
  56 H56            3.9220     2.0788     2.1167 H       
  57 H57           -2.9035    -7.2067    -1.5705 H       
  58 H58           -3.2812    -7.9336    -3.8926 H       
  59 H59           -5.3909    -7.3711    -5.0311 H       
  60 H60           -7.1232    -6.0825    -3.8472 H       
  61 H61           -6.7474    -5.3596    -1.5235 H       
@<TRIPOS>BOND
   1    1    2 ar
   2    1    6 ar
   3    1   33 1
   4    2    3 ar
   5    2    7 1
   6    3    4 ar
   7    3   34 1
   8    4    5 ar
   9    4   35 1
  10    5    6 ar
  11    5   23 1
  12    6   36 1
  13    7    8 am
  14    7    9 2
  15    8   10 1
  16    8   37 1
  17   10   11 1
  18   10   14 2
  19   11   12 2
  20   12   13 1
  21   12   15 1
  22   13   14 1
  23   13   17 1
  24   14   18 1
  25   15   16 1
  26   16   38 1
  27   16   39 1
  28   16   40 1
  29   17   27 1
  30   17   41 1
  31   17   42 1
  32   18   19 1
  33   18   20 2
  34   19   21 1
  35   21   22 1
  36   21   43 1
  37   21   44 1
  38   22   45 1
  39   22   46 1
  40   22   47 1
  41   23   24 1
  42   23   25 1
  43   23   26 1
  44   24   48 1
  45   24   49 1
  46   24   50 1
  47   25   51 1
  48   25   52 1
  49   25   53 1
  50   26   54 1
  51   26   55 1
  52   26   56 1
  53   27   28 ar
  54   27   32 ar
  55   28   29 ar
  56   28   57 1
  57   29   30 ar
  58   29   58 1
  59   30   31 ar
  60   30   59 1
  61   31   32 ar
  62   31   60 1
  63   32   61 1

#	End of record

