#	Name: ASD01870148
#	Creating user name:	WinNT
#	Creation time:	15. 06. 2019 19:38

#	Modifying user name:	WinNT
#	Modification time:	15. 06. 2019 19:38

#	Program:	/corina/corina34_cracker 3.40 0067  02.08.2006

@<TRIPOS>MOLECULE
ASD01870148
  41   44    0    0    0
SMALL
NO_CHARGES


@<TRIPOS>ATOM
   1 C1            -0.1280     1.2462     0.2145 C.ar    
   2 C2            -0.1922    -0.1066    -0.1340 C.ar    
   3 C3             1.0548     1.7730     0.7426 C.ar    
   4 C4             2.1509     0.9588     0.9174 C.ar    
   5 C5             2.0831    -0.3863     0.5695 C.ar    
   6 C6             0.9083    -0.9142     0.0439 C.ar    
   7 N7             3.1983    -1.2095     0.7481 N.am    
   8 C8             3.2278    -2.2055     1.6422 C.2     
   9 C9             4.3229    -1.0704     0.0353 C.2     
  10 C10            5.3246    -2.1151     0.4770 C.3     
  11 C11            4.5744    -2.8925     1.5777 C.3     
  12 O12            4.5092    -0.2396    -0.8275 O.2     
  13 O13            2.3197    -2.5087     2.3858 O.2     
  14 C14            4.9769    -3.5922     0.2815 C.3     
  15 C15            3.8642    -3.9285    -0.7132 C.3     
  16 C16            6.1246    -4.6015     0.3520 C.3     
  17 C17           -1.3031     2.1166     0.0198 C.2     
  18 C18           -1.4401     3.3600     0.8066 C.ar    
  19 O19           -2.1589     1.8109    -0.7879 O.2     
  20 C20           -2.2438     4.4014     0.3379 C.ar    
  21 C21           -2.3680     5.5600     1.0764 C.ar    
  22 C22           -1.6988     5.6928     2.2797 C.ar    
  23 C23           -0.7709     3.4963     2.0248 C.ar    
  24 C24           -0.8990     4.6637     2.7520 C.ar    
  25 F25           -0.2485     4.8006     3.9281 F       
  26 H26           -1.1040    -0.5172    -0.5419 H       
  27 H27            1.1084     2.8173     1.0126 H       
  28 H28            3.0649     1.3650     1.3249 H       
  29 H29            0.8596    -1.9591    -0.2250 H       
  30 H30            6.3648    -1.8078     0.5848 H       
  31 H31            5.0478    -3.1718     2.5190 H       
  32 H32            3.3648    -3.0108    -1.0237 H       
  33 H33            4.2933    -4.4216    -1.5854 H       
  34 H34            3.1416    -4.5928    -0.2391 H       
  35 H35            5.8619    -5.4027     1.0428 H       
  36 H36            6.3020    -5.0197    -0.6388 H       
  37 H37            7.0274    -4.1013     0.7023 H       
  38 H38           -2.7669     4.3001    -0.6015 H       
  39 H39           -2.9892     6.3656     0.7139 H       
  40 H40           -1.7995     6.6022     2.8534 H       
  41 H41           -0.1513     2.6929     2.3951 H       
@<TRIPOS>BOND
   1    1    2 ar
   2    1    3 ar
   3    1   17 1
   4    2    6 ar
   5    2   26 1
   6    3    4 ar
   7    3   27 1
   8    4    5 ar
   9    4   28 1
  10    5    6 ar
  11    5    7 1
  12    6   29 1
  13    7    8 am
  14    7    9 am
  15    8   13 2
  16    8   11 1
  17    9   12 2
  18    9   10 1
  19   10   11 1
  20   10   14 1
  21   10   30 1
  22   11   14 1
  23   11   31 1
  24   14   15 1
  25   14   16 1
  26   15   32 1
  27   15   33 1
  28   15   34 1
  29   16   35 1
  30   16   36 1
  31   16   37 1
  32   17   18 1
  33   17   19 2
  34   18   20 ar
  35   18   23 ar
  36   20   21 ar
  37   20   38 1
  38   21   22 ar
  39   21   39 1
  40   22   24 ar
  41   22   40 1
  42   23   24 ar
  43   23   41 1
  44   24   25 1

#	End of record

