#	Name: ASD03330555
#	Creating user name:	WinNT
#	Creation time:	15. 06. 2019 20:37

#	Modifying user name:	WinNT
#	Modification time:	15. 06. 2019 20:37

#	Program:	/corina/corina34_cracker 3.40 0067  02.08.2006

@<TRIPOS>MOLECULE
ASD03330555
  67   69    0    0    0
SMALL
NO_CHARGES


@<TRIPOS>ATOM
   1 C1            -0.4295     1.6520     2.1617 C.2     
   2 N2            -0.4907     0.3243     2.4491 N.pl3   
   3 C3             0.8396     1.9128     1.7426 C.2     
   4 N4             1.5275     0.7499     1.7619 N.2     
   5 C5             0.7353    -0.2100     2.1792 C.2     
   6 C6             1.1094    -1.6325     2.3320 C.ar    
   7 C7             1.3681     3.2279     1.3393 C.2     
   8 O8             0.6466     4.2067     1.3638 O.2     
   9 C9             3.1763     4.6534     0.5424 C.3     
  10 N10            2.6509     3.3460     0.9433 N.am    
  11 C11            2.8517     4.9033    -0.9318 C.3     
  12 C12            1.3420     4.7834    -1.1490 C.3     
  13 C13            3.3136     6.3080    -1.3248 C.3     
  14 C14            3.5751     3.8683    -1.7958 C.3     
  15 C15            4.6703     4.6761     0.7386 C.2     
  16 N16            5.3351     5.8484     0.7172 N.am    
  17 O17            5.2744     3.6396     0.9159 O.2     
  18 C18            6.7953     5.8646     0.8337 C.3     
  19 C19           -1.6668    -0.3795     2.9675 C.3     
  20 C20           -2.8956     0.0226     2.1458 C.3     
  21 C21           -3.5256     1.2779     2.7408 C.3     
  22 N22           -2.5052     2.1617     3.3078 N.3     
  23 C23           -1.5699     2.6303     2.2744 C.3     
  24 C24           -3.1217     3.2938     4.0122 C.3     
  25 C25            1.7986    -2.2882     1.3109 C.ar    
  26 C26            2.1460    -3.6142     1.4571 C.ar    
  27 C27            1.8107    -4.2975     2.6185 C.ar    
  28 C28            1.1244    -3.6484     3.6368 C.ar    
  29 C29            0.7791    -2.3213     3.5004 C.ar    
  30 O30            2.1543    -5.6042     2.7589 O.3     
  31 C31            1.7784    -6.2464     3.9788 C.3     
  32 C32            2.1621    -1.5477     0.0497 C.3     
  33 H33            2.7179     5.4318     1.1523 H       
  34 H34            3.2263     2.5653     0.9238 H       
  35 H35            0.8267     5.5207    -0.5335 H       
  36 H36            1.1108     4.9613    -2.1993 H       
  37 H37            1.0130     3.7826    -0.8691 H       
  38 H38            4.3582     6.4392    -1.0427 H       
  39 H39            3.2092     6.4366    -2.4021 H       
  40 H40            2.7023     7.0488    -0.8095 H       
  41 H41            3.2461     2.8675    -1.5158 H       
  42 H42            3.3439     4.0462    -2.8460 H       
  43 H43            4.6507     3.9537    -1.6410 H       
  44 H44            4.8466     6.6813     0.6246 H       
  45 H45            7.0893     5.4125     1.7809 H       
  46 H46            7.2318     5.2992     0.0103 H       
  47 H47            7.1514     6.8941     0.7965 H       
  48 H48           -1.5118    -1.4555     2.8882 H       
  49 H49           -1.8224    -0.1088     4.0119 H       
  50 H50           -2.5946     0.2208     1.1171 H       
  51 H51           -3.6226    -0.7893     2.1598 H       
  52 H52           -4.0665     1.8114     1.9592 H       
  53 H53           -4.2250     0.9895     3.5255 H       
  54 H54           -1.1828     3.6110     2.5508 H       
  55 H55           -2.0878     2.6980     1.3177 H       
  56 H56           -3.7491     2.9200     4.8214 H       
  57 H57           -2.3415     3.9342     4.4236 H       
  58 H58           -3.7320     3.8671     3.3144 H       
  59 H59            2.6794    -4.1222     0.6673 H       
  60 H60            0.8650    -4.1833     4.5385 H       
  61 H61            0.2458    -1.8171     4.2928 H       
  62 H62            2.2419    -5.7298     4.8192 H       
  63 H63            0.6942    -6.2155     4.0865 H       
  64 H64            2.1123    -7.2839     3.9611 H       
  65 H65            3.1048    -1.0206     0.1967 H       
  66 H66            2.2667    -2.2574    -0.7710 H       
  67 H67            1.3776    -0.8295    -0.1889 H       
@<TRIPOS>BOND
   1    1    2 1
   2    1    3 2
   3    1   23 1
   4    2   19 1
   5    2    5 1
   6    3    4 1
   7    3    7 1
   8    4    5 2
   9    5    6 1
  10    6   25 ar
  11    6   29 ar
  12    7    8 2
  13    7   10 am
  14    9   10 1
  15    9   11 1
  16    9   15 1
  17    9   33 1
  18   10   34 1
  19   11   12 1
  20   11   13 1
  21   11   14 1
  22   12   35 1
  23   12   36 1
  24   12   37 1
  25   13   38 1
  26   13   39 1
  27   13   40 1
  28   14   41 1
  29   14   42 1
  30   14   43 1
  31   15   16 am
  32   15   17 2
  33   16   18 1
  34   16   44 1
  35   18   45 1
  36   18   46 1
  37   18   47 1
  38   19   20 1
  39   19   48 1
  40   19   49 1
  41   20   21 1
  42   20   50 1
  43   20   51 1
  44   21   22 1
  45   21   52 1
  46   21   53 1
  47   22   23 1
  48   22   24 1
  49   23   54 1
  50   23   55 1
  51   24   56 1
  52   24   57 1
  53   24   58 1
  54   25   26 ar
  55   25   32 1
  56   26   27 ar
  57   26   59 1
  58   27   28 ar
  59   27   30 1
  60   28   29 ar
  61   28   60 1
  62   29   61 1
  63   30   31 1
  64   31   62 1
  65   31   63 1
  66   31   64 1
  67   32   65 1
  68   32   66 1
  69   32   67 1

#	End of record

