#	Name: ASD00100112
#	Creating user name:	WinNT
#	Creation time:	15. 06. 2019 18:30

#	Modifying user name:	WinNT
#	Modification time:	15. 06. 2019 18:30

#	Program:	/corina/corina34_cracker 3.40 0067  02.08.2006

@<TRIPOS>MOLECULE
ASD00100112
  41   43    0    0    0
SMALL
NO_CHARGES


@<TRIPOS>ATOM
   1 N1             0.1680     1.0854     0.0486 N.pl3   
   2 C2             0.0289    -0.2912     0.0032 C.2     
   3 N3             1.0122    -1.1572    -0.0288 N.2     
   4 C4             0.4980    -2.4121    -0.0682 C.2     
   5 C5            -0.8541    -2.3089    -0.0600 C.2     
   6 N6            -1.1513    -0.9687    -0.0097 N.pl3   
   7 C7             1.2770    -3.6737    -0.1124 C.ar    
   8 C8             2.4825    -3.7273    -0.8099 C.ar    
   9 C9             3.2030    -4.9038    -0.8477 C.ar    
  10 C10            2.7306    -6.0285    -0.1955 C.ar    
  11 C11            1.5348    -5.9810     0.4983 C.ar    
  12 C12            0.8090    -4.8083     0.5481 C.ar    
  13 C13           -1.8415    -3.4468    -0.0943 C.3     
  14 C14           -2.4914    -0.3777     0.0213 C.3     
  15 C15           -2.9970    -0.3533     1.4407 C.ar    
  16 C16           -2.6928     0.7185     2.2678 C.ar    
  17 C17           -3.1595     0.7379     3.5739 C.ar    
  18 C18           -3.9259    -0.3094     4.0481 C.ar    
  19 C19           -4.2272    -1.3762     3.2222 C.ar    
  20 C20           -3.7682    -1.3951     1.9178 C.ar    
  21 O21           -1.9384     1.7472     1.7992 O.3     
  22 C22           -1.6648     2.8168     2.7064 C.3     
  23 H23            1.0525     1.4835     0.0587 H       
  24 H24           -0.6191     1.6521     0.0663 H       
  25 H25            2.8518    -2.8501    -1.3201 H       
  26 H26            4.1372    -4.9466    -1.3879 H       
  27 H27            3.2973    -6.9472    -0.2283 H       
  28 H28            1.1707    -6.8621     1.0058 H       
  29 H29           -0.1221    -4.7710     1.0941 H       
  30 H30           -2.0041    -3.8175     0.9178 H       
  31 H31           -2.7865    -3.0955    -0.5087 H       
  32 H32           -1.4482    -4.2506    -0.7167 H       
  33 H33           -2.4488     0.6400    -0.3668 H       
  34 H34           -3.1656    -0.9733    -0.5943 H       
  35 H35           -2.9238     1.5709     4.2197 H       
  36 H36           -4.2896    -0.2947     5.0649 H       
  37 H37           -4.8258    -2.1943     3.5949 H       
  38 H38           -4.0090    -2.2274     1.2731 H       
  39 H39           -2.6030     3.2662     3.0319 H       
  40 H40           -1.1274     2.4303     3.5723 H       
  41 H41           -1.0553     3.5699     2.2069 H       
@<TRIPOS>BOND
   1    1    2 1
   2    1   23 1
   3    1   24 1
   4    2    3 2
   5    2    6 1
   6    3    4 1
   7    4    5 2
   8    4    7 1
   9    5    6 1
  10    5   13 1
  11    6   14 1
  12    7    8 ar
  13    7   12 ar
  14    8    9 ar
  15    8   25 1
  16    9   10 ar
  17    9   26 1
  18   10   11 ar
  19   10   27 1
  20   11   12 ar
  21   11   28 1
  22   12   29 1
  23   13   30 1
  24   13   31 1
  25   13   32 1
  26   14   15 1
  27   14   33 1
  28   14   34 1
  29   15   16 ar
  30   15   20 ar
  31   16   17 ar
  32   16   21 1
  33   17   18 ar
  34   17   35 1
  35   18   19 ar
  36   18   36 1
  37   19   20 ar
  38   19   37 1
  39   20   38 1
  40   21   22 1
  41   22   39 1
  42   22   40 1
  43   22   41 1

#	End of record

