#	Name: ASD01885541
#	Creating user name:	WinNT
#	Creation time:	15. 06. 2019 19:49

#	Modifying user name:	WinNT
#	Modification time:	15. 06. 2019 19:49

#	Program:	/corina/corina34_cracker 3.40 0067  02.08.2006

@<TRIPOS>MOLECULE
ASD01885541
  53   57    0    0    0
SMALL
NO_CHARGES


@<TRIPOS>ATOM
   1 C1            -0.0596     1.4604     0.0254 C.ar    
   2 C2            -0.0181     0.0743    -0.1226 C.ar    
   3 C3            -1.1892    -0.6543    -0.1200 C.ar    
   4 C4            -2.4093    -0.0101     0.0298 C.ar    
   5 C5            -2.4556     1.3724     0.1773 C.ar    
   6 C6            -1.2866     2.1060     0.1817 C.ar    
   7 C7             1.1970     2.2450     0.0227 C.2     
   8 O8            -3.5610    -0.7311     0.0320 O.3     
   9 C9             2.1492     2.0737     1.0570 C.2     
  10 C10            3.2905     2.7874     1.0525 C.2     
  11 N11            3.5505     3.6846     0.0568 N.pl3   
  12 C12            2.6527     3.8805    -0.9648 C.2     
  13 C13            1.4542     3.1475    -0.9923 C.2     
  14 C14            4.5932     4.5222    -0.1994 C.2     
  15 N15            4.3187     5.1668    -1.3039 N.2     
  16 N16            3.1760     4.7967    -1.7651 N.2     
  17 C17            5.8367     4.6783     0.6375 C.3     
  18 C18            6.9032     3.6931     0.1551 C.3     
  19 F19           -3.6449     1.9965     0.3225 F       
  20 C20           -4.2266    -0.8738    -1.1441 C.ar    
  21 C21           -3.7754    -0.2313    -2.2927 C.ar    
  22 C22           -4.4875    -0.4071    -3.4684 C.ar    
  23 C23           -5.6137    -1.2083    -3.4618 C.ar    
  24 N24           -6.0152    -1.8030    -2.3553 N.ar    
  25 C25           -5.3630    -1.6669    -1.2181 C.ar    
  26 C26           -6.3937    -1.4045    -4.7363 C.3     
  27 C27           -5.8645    -2.3684     0.0178 C.3     
  28 C28            8.2864     3.7758     0.8037 C.3     
  29 C29            7.3557     2.6070     1.1330 C.3     
  30 C30            0.4592     3.3500    -2.1059 C.3     
  31 F31           -0.3714     4.4328    -1.7979 F       
  32 F32            1.1415     3.6102    -3.2992 F       
  33 F33           -0.3161     2.1949    -2.2543 F       
  34 H34            0.9307    -0.4283    -0.2397 H       
  35 H35           -1.1567    -1.7277    -0.2350 H       
  36 H36           -1.3222     3.1793     0.2965 H       
  37 H37            1.9588     1.3683     1.8523 H       
  38 H38            4.0093     2.6488     1.8465 H       
  39 H39            6.2132     5.6968     0.5423 H       
  40 H40            5.5997     4.4747     1.6818 H       
  41 H41            6.8579     3.4317    -0.9022 H       
  42 H42           -2.8919     0.3894    -2.2686 H       
  43 H43           -4.1664     0.0767    -4.3791 H       
  44 H44           -6.0020    -2.2687    -5.2726 H       
  45 H45           -7.4442    -1.5707    -4.4974 H       
  46 H46           -6.2993    -0.5160    -5.3605 H       
  47 H47           -5.4103    -3.3571     0.0840 H       
  48 H48           -5.5976    -1.7861     0.8997 H       
  49 H49           -6.9485    -2.4695    -0.0364 H       
  50 H50            9.1511     3.5684     0.1732 H       
  51 H51            8.4367     4.5321     1.5741 H       
  52 H52            6.8936     2.5943     2.1201 H       
  53 H53            7.6081     1.6306     0.7193 H       
@<TRIPOS>BOND
   1    1    2 ar
   2    1    7 1
   3    1    6 ar
   4    2    3 ar
   5    2   34 1
   6    3    4 ar
   7    3   35 1
   8    4    5 ar
   9    4    8 1
  10    5    6 ar
  11    5   19 1
  12    6   36 1
  13    7    9 1
  14    7   13 2
  15    8   20 1
  16    9   10 2
  17    9   37 1
  18   10   11 1
  19   10   38 1
  20   11   12 1
  21   11   14 1
  22   12   13 1
  23   12   16 2
  24   13   30 1
  25   14   15 2
  26   14   17 1
  27   15   16 1
  28   17   18 1
  29   17   39 1
  30   17   40 1
  31   18   28 1
  32   18   29 1
  33   18   41 1
  34   20   21 ar
  35   20   25 ar
  36   21   22 ar
  37   21   42 1
  38   22   23 ar
  39   22   43 1
  40   23   24 ar
  41   23   26 1
  42   24   25 ar
  43   25   27 1
  44   26   44 1
  45   26   45 1
  46   26   46 1
  47   27   47 1
  48   27   48 1
  49   27   49 1
  50   28   29 1
  51   28   50 1
  52   28   51 1
  53   29   52 1
  54   29   53 1
  55   30   31 1
  56   30   32 1
  57   30   33 1

#	End of record

