#	Name: ASD01412024
#	Creating user name:	WinNT
#	Creation time:	15. 06. 2019 19:19

#	Modifying user name:	WinNT
#	Modification time:	15. 06. 2019 19:19

#	Program:	/corina/corina34_cracker 3.40 0067  02.08.2006

@<TRIPOS>MOLECULE
ASD01412024
  78   82    0    0    0
SMALL
NO_CHARGES


@<TRIPOS>ATOM
   1 C1            -1.1720     3.2492    -0.6278 C.ar    
   2 C2            -0.9746     1.9107    -1.0235 C.ar    
   3 C3            -2.0428     1.0031    -0.9798 C.ar    
   4 C4            -3.2691     1.4145    -0.5562 C.ar    
   5 C5            -3.4750     2.7444    -0.1610 C.ar    
   6 C6            -2.4232     3.6578    -0.1929 C.ar    
   7 N7             0.0355     3.9010    -0.7729 N.pl3   
   8 C8             0.9673     3.0071    -1.2445 C.2     
   9 C9             0.3835     1.7926    -1.4058 C.2     
  10 C10            1.0603     0.5412    -1.9028 C.3     
  11 C11            0.9729    -0.5462    -0.8301 C.3     
  12 C12            1.6600    -1.8167    -1.3348 C.3     
  13 C13            0.9652    -2.3005    -2.6092 C.3     
  14 C14            1.0526    -1.2130    -3.6819 C.3     
  15 C15            0.3655     0.0575    -3.1773 C.3     
  16 C16           -4.8097     3.1768     0.2957 C.2     
  17 O17           -4.9911     4.3291     0.6389 O.2     
  18 N18           -5.8279     2.2945     0.3324 N.am    
  19 C19           -7.1532     2.7238     0.7858 C.3     
  20 C20           -8.1050     1.5567     0.7320 C.2     
  21 C21           -7.0583     3.2388     2.2234 C.3     
  22 C22           -7.6658     3.8422    -0.1238 C.3     
  23 C23           -8.8163    -0.4857    -0.2498 C.ar    
  24 O24           -8.9749     1.4445     1.5696 O.2     
  25 C25           -9.1915    -1.0741     0.9543 C.ar    
  26 C26          -10.0114    -2.1793     0.9564 C.ar    
  27 C27          -10.4686    -2.7114    -0.2554 C.ar    
  28 C28          -10.0889    -2.1158    -1.4643 C.ar    
  29 C29           -9.2683    -1.0112    -1.4567 C.ar    
  30 C30          -11.3439    -3.8917    -0.2583 C.2     
  31 C31          -12.3914    -3.9580     0.5924 C.2     
  32 N32           -7.9894     0.6374    -0.2468 N.am    
  33 C33            0.2835     5.3136    -0.4741 C.3     
  34 C34            2.3839     3.3198    -1.5311 C.ar    
  35 C35            2.7288     4.4835    -2.2278 C.ar    
  36 C36            4.0689     4.7299    -2.4705 C.ar    
  37 C37            5.0154     3.8270    -2.0213 C.ar    
  38 N38            4.6609     2.7374    -1.3671 N.ar    
  39 C39            3.3998     2.4622    -1.1065 C.ar    
  40 C40          -12.7895    -2.8067     1.3178 C.2     
  41 O41          -12.2156    -1.7486     1.1422 O.2     
  42 O42          -13.8051    -2.8847     2.2028 O.3     
  43 H43           -1.8924    -0.0226    -1.2828 H       
  44 H44           -4.0891     0.7124    -0.5244 H       
  45 H45           -2.5839     4.6813     0.1122 H       
  46 H46            2.1070     0.7555    -2.1186 H       
  47 H47            1.4678    -0.2016     0.0778 H       
  48 H48           -0.0738    -0.7605    -0.6144 H       
  49 H49            2.7067    -1.6025    -1.5505 H       
  50 H50            1.5977    -2.5915    -0.5706 H       
  51 H51            1.4547    -3.2056    -2.9687 H       
  52 H52           -0.0815    -2.5147    -2.3934 H       
  53 H53            2.0993    -0.9987    -3.8976 H       
  54 H54            0.5576    -1.5576    -4.5898 H       
  55 H55           -0.6812    -0.1568    -2.9615 H       
  56 H56            0.4277     0.8322    -3.9415 H       
  57 H57           -5.6832     1.3753     0.0586 H       
  58 H58           -6.3699     4.0830     2.2622 H       
  59 H59           -8.0444     3.5582     2.5607 H       
  60 H60           -6.6931     2.4420     2.8714 H       
  61 H61           -7.7334     3.4754    -1.1480 H       
  62 H62           -8.6519     4.1616     0.2136 H       
  63 H63           -6.9774     4.6864    -0.0849 H       
  64 H64           -8.8384    -0.6630     1.8884 H       
  65 H65          -10.3015    -2.6357     1.8912 H       
  66 H66          -10.4389    -2.5231    -2.4013 H       
  67 H67           -8.9751    -0.5509    -2.3886 H       
  68 H68          -11.1499    -4.7061    -0.9406 H       
  69 H69          -12.9254    -4.8880     0.7200 H       
  70 H70           -7.3312     0.7570    -0.9492 H       
  71 H71            0.5955     5.4158     0.5653 H       
  72 H72            1.0697     5.6907    -1.1281 H       
  73 H73           -0.6301     5.8854    -0.6371 H       
  74 H74            1.9688     5.1714    -2.5676 H       
  75 H75            4.3723     5.6177    -3.0054 H       
  76 H76            6.0618     4.0168    -2.2093 H       
  77 H77            3.1489     1.5601    -0.5683 H       
  78 H78          -14.0037    -2.0496     2.6481 H       
@<TRIPOS>BOND
   1    1    2 ar
   2    1    7 1
   3    1    6 ar
   4    2    3 ar
   5    2    9 1
   6    3    4 ar
   7    3   43 1
   8    4    5 ar
   9    4   44 1
  10    5    6 ar
  11    5   16 1
  12    6   45 1
  13    7    8 1
  14    7   33 1
  15    8    9 2
  16    8   34 1
  17    9   10 1
  18   10   11 1
  19   10   15 1
  20   10   46 1
  21   11   12 1
  22   11   47 1
  23   11   48 1
  24   12   13 1
  25   12   49 1
  26   12   50 1
  27   13   14 1
  28   13   51 1
  29   13   52 1
  30   14   15 1
  31   14   53 1
  32   14   54 1
  33   15   55 1
  34   15   56 1
  35   16   17 2
  36   16   18 am
  37   18   19 1
  38   18   57 1
  39   19   20 1
  40   19   21 1
  41   19   22 1
  42   20   24 2
  43   20   32 am
  44   21   58 1
  45   21   59 1
  46   21   60 1
  47   22   61 1
  48   22   62 1
  49   22   63 1
  50   23   25 ar
  51   23   29 ar
  52   23   32 1
  53   25   26 ar
  54   25   64 1
  55   26   27 ar
  56   26   65 1
  57   27   28 ar
  58   27   30 1
  59   28   29 ar
  60   28   66 1
  61   29   67 1
  62   30   31 2
  63   30   68 1
  64   31   40 1
  65   31   69 1
  66   32   70 1
  67   33   71 1
  68   33   72 1
  69   33   73 1
  70   34   35 ar
  71   34   39 ar
  72   35   36 ar
  73   35   74 1
  74   36   37 ar
  75   36   75 1
  76   37   38 ar
  77   37   76 1
  78   38   39 ar
  79   39   77 1
  80   40   41 2
  81   40   42 1
  82   42   78 1

#	End of record

