#	Name: ASD05740025
#	Creating user name:	WinNT
#	Creation time:	15. 06. 2019 21:02

#	Modifying user name:	WinNT
#	Modification time:	15. 06. 2019 21:02

#	Program:	/corina/corina34_cracker 3.40 0067  02.08.2006

@<TRIPOS>MOLECULE
ASD05740025
  51   52    0    0    0
SMALL
NO_CHARGES


@<TRIPOS>ATOM
   1 C1            -0.0184     1.5028     0.0103 C.3     
   2 C2             3.6592    -0.7687    -0.0361 C.ar    
   3 C3            -3.9396    -1.4532    -6.4537 C.3     
   4 C4             3.6384    -2.1651    -0.0424 C.ar    
   5 C5             2.4938    -0.0612    -0.0217 C.ar    
   6 C6             1.2678    -0.7384    -0.0140 C.ar    
   7 C7             1.2393    -2.1462    -0.0208 C.ar    
   8 C8             2.4317    -2.8514    -0.0350 C.ar    
   9 C9             0.0021    -0.0041     0.0020 C.2     
  10 C10           -1.1547    -0.7179     0.0097 C.2     
  11 C11           -1.1096    -2.1263     0.0021 C.2     
  12 O12            0.0546    -2.7945    -0.0121 O.3     
  13 C13           -2.4822    -0.0048     0.0267 C.3     
  14 C14           -2.9974     0.1314    -1.3829 C.ar    
  15 C15           -2.7653     1.2886    -2.1154 C.ar    
  16 O16           -2.1537    -2.7535     0.0091 O.2     
  17 C17           -4.1672    -0.7326    -3.2848 C.ar    
  18 N18           -3.9293     0.3886    -3.9464 N.ar    
  19 C19           -3.2500     1.3820    -3.4039 C.ar    
  20 S20            5.1547    -3.0623    -0.0605 S.3     
  21 N21           -4.8874    -1.7545    -3.8958 N.am    
  22 S22           -5.4427    -1.5647    -5.4443 S.o2    
  23 O23           -6.1223    -0.3169    -5.4224 O.2     
  24 O24           -6.1384    -2.7732    -5.7177 O.2     
  25 C25            6.4060    -1.7489    -0.0659 C.3     
  26 C26           -3.7078    -0.8963    -1.9795 C.ar    
  27 F27           -3.9517    -2.0416    -1.3059 F       
  28 H28            1.0042     1.8801     0.0026 H       
  29 H29           -0.5455     1.8639    -0.8728 H       
  30 H30           -0.5286     1.8543     0.9071 H       
  31 H31            4.6043    -0.2460    -0.0379 H       
  32 H32           -3.3567    -2.3671    -6.3396 H       
  33 H33           -4.2139    -1.3255    -7.5009 H       
  34 H34           -3.3451    -0.5999    -6.1272 H       
  35 H35            2.5159     1.0186    -0.0161 H       
  36 H36            2.4225    -3.9313    -0.0407 H       
  37 H37           -3.1948    -0.5776     0.6202 H       
  38 H38           -2.3572     0.9853     0.4651 H       
  39 H39           -2.2113     2.1073    -1.6804 H       
  40 H40           -3.0714     2.2802    -3.9763 H       
  41 H41           -5.0642    -2.5780    -3.4147 H       
  42 H42            6.2764    -1.1273    -0.9518 H       
  43 H43            6.2927    -1.1355     0.8281 H       
  44 H44            7.4006    -2.1947    -0.0770 H       
  45 C45           12.9278     9.9496     7.7754 C.3     
  46 N46           12.9476     8.4847     7.7673 N.2     
  47 C47           13.4883     7.8722     6.8213 C.1     
  48 O48           14.0109     7.2802     5.9071 O.2     
  49 H49           13.9504    10.3269     7.7676 H       
  50 H50           12.4006    10.3107     6.8923 H       
  51 H51           12.4176    10.3011     8.6722 H       
@<TRIPOS>BOND
   1    1    9 1
   2    1   28 1
   3    1   29 1
   4    1   30 1
   5    2    4 ar
   6    2    5 ar
   7    2   31 1
   8    3   22 1
   9    3   32 1
  10    3   33 1
  11    3   34 1
  12    4   20 1
  13    4    8 ar
  14    5    6 ar
  15    5   35 1
  16    6    7 ar
  17    6    9 1
  18    7    8 ar
  19    7   12 1
  20    8   36 1
  21    9   10 2
  22   10   11 1
  23   10   13 1
  24   11   12 1
  25   11   16 2
  26   13   14 1
  27   13   37 1
  28   13   38 1
  29   14   15 ar
  30   14   26 ar
  31   15   19 ar
  32   15   39 1
  33   17   18 ar
  34   17   21 1
  35   17   26 ar
  36   18   19 ar
  37   19   40 1
  38   20   25 1
  39   21   22 am
  40   21   41 1
  41   22   23 2
  42   22   24 2
  43   25   42 1
  44   25   43 1
  45   25   44 1
  46   26   27 1
  47   45   46 1
  48   45   49 1
  49   45   50 1
  50   45   51 1
  51   46   47 2
  52   47   48 2

#	End of record

