#	Name: ASD01816599
#	Creating user name:	WinNT
#	Creation time:	15. 06. 2019 19:35

#	Modifying user name:	WinNT
#	Modification time:	15. 06. 2019 19:35

#	Program:	/corina/corina34_cracker 3.40 0067  02.08.2006

@<TRIPOS>MOLECULE
ASD01816599
  80   86    0    0    0
SMALL
NO_CHARGES


@<TRIPOS>ATOM
   1 C1            -0.0165     1.3805     0.0455 C.ar    
   2 C2             0.0022    -0.0043     0.0374 C.ar    
   3 C3            -1.1753    -0.7254     0.0329 C.ar    
   4 C4            -2.3995    -0.0671     0.0360 C.ar    
   5 C5            -2.4231     1.3373     0.0443 C.ar    
   6 C6            -1.2279     2.0602     0.0550 C.ar    
   7 N7            -3.5816    -0.7892     0.0306 N.pl3   
   8 C8            -4.7923    -0.2090     0.0332 C.2     
   9 C9            -4.9388     1.1557     0.0416 C.2     
  10 C10           -3.7325     2.0146     0.0475 C.2     
  11 C11           -6.0661     2.0829     0.0474 C.2     
  12 N12           -5.5331     3.3237     0.0559 N.am    
  13 N13           -4.1377     3.2525     0.0557 N.2     
  14 C14           -6.2735     4.5126     0.0628 C.ar    
  15 O15           -7.2520     1.7948     0.0449 O.2     
  16 F16            1.1447     2.0710     0.0498 F       
  17 C17           -6.7314     5.0401     1.2623 C.ar    
  18 C18           -7.4612     6.2133     1.2660 C.ar    
  19 C19           -7.7366     6.8627     0.0770 C.ar    
  20 C20           -7.2826     6.3413    -1.1210 C.ar    
  21 C21           -6.5468     5.1707    -1.1320 C.ar    
  22 N22           -1.2507     3.4560     0.0637 N.3     
  23 C23           -0.5798     3.9860     1.2582 C.3     
  24 C24           -0.6243     5.4922     1.2326 C.ar    
  25 C25           -1.6854     6.1611     1.8146 C.ar    
  26 C26           -1.7289     7.5415     1.7927 C.ar    
  27 C27           -0.7059     8.2573     1.1857 C.ar    
  28 C28            0.3582     7.5829     0.6022 C.ar    
  29 C29            0.3989     6.2026     0.6322 C.ar    
  30 N30           -0.7475     9.6583     1.1615 N.pl3   
  31 N31           -1.7555    10.4628     1.7085 N.2     
  32 C32            0.1812    10.4727     0.6111 C.2     
  33 C33           -0.2274    11.7491     0.7986 C.2     
  34 C34           -1.4440    11.7149     1.4891 C.2     
  35 F35           -6.1033     4.6612    -2.3020 F       
  36 C36           -3.5071    -2.2554     0.0210 C.3     
  37 C37           -4.0786    -2.7975     1.3308 C.3     
  38 C38           -4.3543    -2.7940    -1.1333 C.3     
  39 C39           -4.2865    -4.3205    -1.1607 C.3     
  40 N40           -4.5872    -4.9100     0.1290 N.3     
  41 C41           -4.0472    -4.3236     1.3381 C.3     
  42 C42           -5.3419    -4.8145    -2.1745 C.3     
  43 C43           -2.6143    -4.8051     1.5959 C.3     
  44 C44           -2.9149    -4.7681    -1.6749 C.3     
  45 C45           -4.9089    -4.7998     2.5293 C.3     
  46 H46            0.9480    -0.5257     0.0342 H       
  47 H47           -1.1450    -1.8050     0.0266 H       
  48 H48           -5.6742    -0.8325     0.0283 H       
  49 H49           -6.5177     4.5336     2.1919 H       
  50 H50           -7.8174     6.6236     2.1994 H       
  51 H51           -8.3079     7.7792     0.0836 H       
  52 H52           -7.4995     6.8511    -2.0480 H       
  53 H53           -0.8386     3.8296    -0.7782 H       
  54 H54           -1.0878     3.6227     2.1516 H       
  55 H55            0.4581     3.6533     1.2698 H       
  56 H56           -2.4811     5.6037     2.2863 H       
  57 H57           -2.5581     8.0634     2.2471 H       
  58 H58            1.1552     8.1370     0.1289 H       
  59 H59            1.2266     5.6773     0.1789 H       
  60 H60            1.0866    10.1606     0.1120 H       
  61 H61            0.2946    12.6373     0.4748 H       
  62 H62           -2.0260    12.5738     1.7887 H       
  63 H63           -2.4699    -2.5564    -0.0949 H       
  64 H64           -3.4879    -2.4179     2.1679 H       
  65 H65           -5.1098    -2.4548     1.4450 H       
  66 H66           -5.3904    -2.4781    -1.0014 H       
  67 H67           -3.9768    -2.3962    -2.0769 H       
  68 H68           -5.5606    -5.1592     0.2212 H       
  69 H69           -5.1183    -4.4058    -3.1599 H       
  70 H70           -5.3207    -5.9034    -2.2194 H       
  71 H71           -6.3313    -4.4830    -1.8595 H       
  72 H72           -1.9788    -4.5201     0.7574 H       
  73 H73           -2.2362    -4.3478     2.5102 H       
  74 H74           -2.6093    -5.8898     1.7032 H       
  75 H75           -2.1366    -4.3839    -1.0155 H       
  76 H76           -2.8712    -5.8571    -1.6927 H       
  77 H77           -2.7608    -4.3818    -2.6824 H       
  78 H78           -4.8737    -5.8874     2.5914 H       
  79 H79           -4.5210    -4.3704     3.4530 H       
  80 H80           -5.9399    -4.4773     2.3837 H       
@<TRIPOS>BOND
   1    1    2 ar
   2    1   16 1
   3    1    6 ar
   4    2    3 ar
   5    2   46 1
   6    3    4 ar
   7    3   47 1
   8    4    5 ar
   9    4    7 1
  10    5    6 ar
  11    5   10 1
  12    6   22 1
  13    7    8 1
  14    7   36 1
  15    8    9 2
  16    8   48 1
  17    9   10 1
  18    9   11 1
  19   10   13 2
  20   11   12 am
  21   11   15 2
  22   12   13 1
  23   12   14 1
  24   14   17 ar
  25   14   21 ar
  26   17   18 ar
  27   17   49 1
  28   18   19 ar
  29   18   50 1
  30   19   20 ar
  31   19   51 1
  32   20   21 ar
  33   20   52 1
  34   21   35 1
  35   22   23 1
  36   22   53 1
  37   23   24 1
  38   23   54 1
  39   23   55 1
  40   24   25 ar
  41   24   29 ar
  42   25   26 ar
  43   25   56 1
  44   26   27 ar
  45   26   57 1
  46   27   28 ar
  47   27   30 1
  48   28   29 ar
  49   28   58 1
  50   29   59 1
  51   30   31 1
  52   30   32 1
  53   31   34 2
  54   32   33 2
  55   32   60 1
  56   33   34 1
  57   33   61 1
  58   34   62 1
  59   36   37 1
  60   36   38 1
  61   36   63 1
  62   37   41 1
  63   37   64 1
  64   37   65 1
  65   38   39 1
  66   38   66 1
  67   38   67 1
  68   39   40 1
  69   39   42 1
  70   39   44 1
  71   40   41 1
  72   40   68 1
  73   41   43 1
  74   41   45 1
  75   42   69 1
  76   42   70 1
  77   42   71 1
  78   43   72 1
  79   43   73 1
  80   43   74 1
  81   44   75 1
  82   44   76 1
  83   44   77 1
  84   45   78 1
  85   45   79 1
  86   45   80 1

#	End of record

