#	Name: ASD01880273
#	Creating user name:	WinNT
#	Creation time:	15. 06. 2019 19:40

#	Modifying user name:	WinNT
#	Modification time:	15. 06. 2019 19:40

#	Program:	/corina/corina34_cracker 3.40 0067  02.08.2006

@<TRIPOS>MOLECULE
ASD01880273
  41   43    0    0    0
SMALL
NO_CHARGES


@<TRIPOS>ATOM
   1 C1            -0.0179     1.4690     0.0101 C.2     
   2 C2             0.1072     0.0058     0.1281 C.2     
   3 C3            -1.0169    -0.7769     0.3111 C.2     
   4 N4            -0.9066    -2.1135     0.4188 N.am    
   5 C5             0.2931    -2.7185     0.3517 C.2     
   6 C6             1.4663    -1.9622     0.1666 C.2     
   7 C7             1.3803    -0.6108     0.0491 C.2     
   8 O8             0.3652    -3.9317     0.4523 O.2     
   9 C9            -2.1122    -2.9229     0.6129 C.3     
  10 C10           -2.6681    -3.3257    -0.7287 C.ar    
  11 C11           -2.2534    -4.5028    -1.3233 C.ar    
  12 C12           -2.7629    -4.8727    -2.5536 C.ar    
  13 C13           -3.6881    -4.0647    -3.1902 C.ar    
  14 C14           -4.1028    -2.8868    -2.5947 C.ar    
  15 C15           -3.5968    -2.5207    -1.3617 C.ar    
  16 Cl16          -4.3281    -4.5284    -4.7359 Cl      
  17 C17            0.5596     2.3464     1.0501 C.ar    
  18 O18           -0.5919     1.9551    -0.9455 O.2     
  19 C19            1.1151     1.7926     2.2043 C.ar    
  20 C20            1.6542     2.6211     3.1741 C.ar    
  21 C21            1.6413     3.9980     2.9972 C.ar    
  22 C22            1.0908     4.5486     1.8541 C.ar    
  23 C23            0.5565     3.7326     0.8786 C.ar    
  24 O24            2.1958     2.0860     4.2999 O.3     
  25 C25            2.7339     2.9992     5.2583 C.3     
  26 H26           -1.9903    -0.3126     0.3683 H       
  27 H27            2.4271    -2.4527     0.1140 H       
  28 H28            2.2699    -0.0152    -0.0933 H       
  29 H29           -1.8620    -3.8160     1.1855 H       
  30 H30           -2.8573    -2.3406     1.1550 H       
  31 H31           -1.5309    -5.1332    -0.8264 H       
  32 H32           -2.4386    -5.7922    -3.0182 H       
  33 H33           -4.8250    -2.2557    -3.0911 H       
  34 H34           -3.9204    -1.6012    -0.8967 H       
  35 H35            1.1243     0.7214     2.3409 H       
  36 H36            2.0625     4.6417     3.7553 H       
  37 H37            1.0835     5.6205     1.7226 H       
  38 H38            0.1277     4.1658    -0.0130 H       
  39 H39            3.5320     3.5812     4.7974 H       
  40 H40            1.9470     3.6703     5.6023 H       
  41 H41            3.1332     2.4426     6.1062 H       
@<TRIPOS>BOND
   1    1    2 1
   2    1   17 1
   3    1   18 2
   4    2    3 2
   5    2    7 1
   6    3    4 1
   7    3   26 1
   8    4    5 am
   9    4    9 1
  10    5    6 1
  11    5    8 2
  12    6    7 2
  13    6   27 1
  14    7   28 1
  15    9   10 1
  16    9   29 1
  17    9   30 1
  18   10   11 ar
  19   10   15 ar
  20   11   12 ar
  21   11   31 1
  22   12   13 ar
  23   12   32 1
  24   13   14 ar
  25   13   16 1
  26   14   15 ar
  27   14   33 1
  28   15   34 1
  29   17   19 ar
  30   17   23 ar
  31   19   20 ar
  32   19   35 1
  33   20   21 ar
  34   20   24 1
  35   21   22 ar
  36   21   36 1
  37   22   23 ar
  38   22   37 1
  39   23   38 1
  40   24   25 1
  41   25   39 1
  42   25   40 1
  43   25   41 1

#	End of record

