#	Name: ASD05143316
#	Creating user name:	WinNT
#	Creation time:	15. 06. 2019 20:57

#	Modifying user name:	WinNT
#	Modification time:	15. 06. 2019 20:57

#	Program:	/corina/corina34_cracker 3.40 0067  02.08.2006

@<TRIPOS>MOLECULE
ASD05143316
  52   54    0    0    0
SMALL
NO_CHARGES


@<TRIPOS>ATOM
   1 C1            -0.2660     1.4622     0.1073 C.2     
   2 N2            -0.0188     0.2122    -0.2307 N.2     
   3 S3            -1.5350    -0.5502    -0.3147 S.3     
   4 C4            -2.4278     0.8597     0.1116 C.2     
   5 N5            -1.5274     1.8005     0.2922 N.2     
   6 N6            -3.7997     0.9761     0.2412 N.pl3   
   7 C7            -4.3576     2.1618     0.7275 C.ar    
   8 C8            -5.6570     2.5122     0.3831 C.ar    
   9 C9            -6.2053     3.6842     0.8657 C.ar    
  10 C10           -5.4623     4.5089     1.6904 C.ar    
  11 C11           -4.1685     4.1630     2.0352 C.ar    
  12 C12           -3.6160     2.9896     1.5608 C.ar    
  13 C13            1.2079    -0.3552    -0.4663 C.ar    
  14 C14            2.0485     0.1739    -1.4453 C.ar    
  15 C15            1.6248    -1.4652     0.2791 C.ar    
  16 C16            2.8640    -2.0308     0.0343 C.ar    
  17 C17            3.6872    -1.5012    -0.9432 C.ar    
  18 C18            3.2816    -0.4013    -1.6778 C.ar    
  19 C19            0.8286     2.4452     0.2786 C.ar    
  20 C20            0.6169     3.7886    -0.0321 C.ar    
  21 C21            2.0720     2.0307     0.7566 C.ar    
  22 C22            3.0885     2.9484     0.9152 C.ar    
  23 C23            2.8759     4.2839     0.6000 C.ar    
  24 C24            1.6380     4.7009     0.1290 C.ar    
  25 O25            3.8798     5.1857     0.7580 O.3     
  26 C26            3.5927     6.5428     0.4146 C.3     
  27 O27            0.8157    -1.9847     1.2396 O.3     
  28 C28            1.3074    -3.1170     1.9595 C.3     
  29 C29           -6.0637     5.7875     2.2143 C.3     
  30 H30           -4.3748     0.2348    -0.0053 H       
  31 H31           -6.2376     1.8690    -0.2616 H       
  32 H32           -7.2155     3.9572     0.5983 H       
  33 H33           -3.5908     4.8094     2.6793 H       
  34 H34           -2.6057     2.7199     1.8308 H       
  35 H35            1.7350     1.0322    -2.0209 H       
  36 H36            3.1890    -2.8866     0.6074 H       
  37 H37            4.6535    -1.9457    -1.1305 H       
  38 H38            3.9301     0.0058    -2.4394 H       
  39 H39           -0.3455     4.1135    -0.3988 H       
  40 H40            2.2380     0.9922     1.0023 H       
  41 H41            4.0513     2.6283     1.2855 H       
  42 H42            1.4761     5.7403    -0.1156 H       
  43 H43            4.4771     7.1562     0.5873 H       
  44 H44            3.3106     6.5998    -0.6367 H       
  45 H45            2.7714     6.9077     1.0314 H       
  46 H46            2.2329    -2.8494     2.4694 H       
  47 H47            0.5656    -3.4309     2.6938 H       
  48 H48            1.4989    -3.9344     1.2642 H       
  49 H49           -6.5630     5.5921     3.1633 H       
  50 H50           -5.2754     6.5253     2.3636 H       
  51 H51           -6.7877     6.1699     1.4949 H       
  52 Br52           9.6535    12.1562     8.1633 Br      
@<TRIPOS>BOND
   1    1    2 2
   2    1   19 1
   3    1    5 1
   4    2    3 1
   5    2   13 1
   6    3    4 1
   7    4    5 2
   8    4    6 1
   9    6    7 1
  10    6   30 1
  11    7    8 ar
  12    7   12 ar
  13    8    9 ar
  14    8   31 1
  15    9   10 ar
  16    9   32 1
  17   10   11 ar
  18   10   29 1
  19   11   12 ar
  20   11   33 1
  21   12   34 1
  22   13   14 ar
  23   13   15 ar
  24   14   18 ar
  25   14   35 1
  26   15   16 ar
  27   15   27 1
  28   16   17 ar
  29   16   36 1
  30   17   18 ar
  31   17   37 1
  32   18   38 1
  33   19   20 ar
  34   19   21 ar
  35   20   24 ar
  36   20   39 1
  37   21   22 ar
  38   21   40 1
  39   22   23 ar
  40   22   41 1
  41   23   24 ar
  42   23   25 1
  43   24   42 1
  44   25   26 1
  45   26   43 1
  46   26   44 1
  47   26   45 1
  48   27   28 1
  49   28   46 1
  50   28   47 1
  51   28   48 1
  52   29   49 1
  53   29   50 1
  54   29   51 1

#	End of record

