#	Name: ASD02039433
#	Creating user name:	WinNT
#	Creation time:	15. 06. 2019 20:18

#	Modifying user name:	WinNT
#	Modification time:	15. 06. 2019 20:18

#	Program:	/corina/corina34_cracker 3.40 0067  02.08.2006

@<TRIPOS>MOLECULE
ASD02039433
  56   59    0    0    0
SMALL
NO_CHARGES


@<TRIPOS>ATOM
   1 C1             0.0489     1.1894     0.0280 C.ar    
   2 C2             0.2645    -0.1793     0.1027 C.ar    
   3 C3             1.2076     2.1530     0.0308 C.3     
   4 N4             1.7260     2.2974    -1.3318 N.am    
   5 C5             1.3134     3.3215    -2.1048 C.2     
   6 C6             0.2557     4.2275    -1.6242 C.2     
   7 C7            -0.3265     5.2360    -2.3349 C.2     
   8 N8            -0.3213     4.2071    -0.3956 N.2     
   9 C9            -1.2132     5.1532    -0.3336 C.2     
  10 N10           -1.2424     5.8120    -1.5213 N.pl3   
  11 O11            1.8142     3.4976    -3.1990 O.2     
  12 C12           -2.1091     6.9434    -1.8605 C.3     
  13 C13            2.6929     1.3287    -1.8542 C.3     
  14 C14           -0.8193    -1.0379     0.0976 C.ar    
  15 C15           -2.2984     0.7276    -0.0607 C.ar    
  16 C16           -1.2538     1.6497    -0.0551 C.ar    
  17 C17           -3.6997     1.2044    -0.1492 C.ar    
  18 C18           -3.9687     2.5694    -0.2321 C.ar    
  19 N19           -2.0499    -0.5734     0.0223 N.ar    
  20 C20           -4.7505     0.2876    -0.1554 C.ar    
  21 C21           -6.0536     0.7349    -0.2378 C.ar    
  22 C22           -6.3179     2.0982    -0.3151 C.ar    
  23 C23           -5.2730     3.0111    -0.3143 C.ar    
  24 F24           -7.0728    -0.1518    -0.2439 F       
  25 O25           -7.6015     2.5366    -0.3971 O.3     
  26 C26            2.1486     0.7056    -3.1433 C.3     
  27 C27            3.1981    -0.2460    -3.7236 C.3     
  28 O28            4.4117     0.4712    -3.9577 O.3     
  29 C29            4.9921     1.0360    -2.7803 C.3     
  30 C30            4.0147     2.0390    -2.1620 C.3     
  31 C31           -7.8008     3.9496    -0.4736 C.3     
  32 F32           -7.1592     4.4501    -1.6115 F       
  33 F33           -9.1705     4.2238    -0.5519 F       
  34 F34           -7.2679     4.5582     0.6679 F       
  35 H35            1.2694    -0.5704     0.1641 H       
  36 H36            0.8723     3.1235     0.3967 H       
  37 H37            1.9954     1.7721     0.6808 H       
  38 H38           -0.0998     5.5206    -3.3518 H       
  39 H39           -1.8323     5.3763     0.5227 H       
  40 H40           -1.6079     7.8758    -1.6003 H       
  41 H41           -2.3211     6.9310    -2.9296 H       
  42 H42           -3.0430     6.8654    -1.3039 H       
  43 H43            2.8616     0.5465    -1.1140 H       
  44 H44           -0.6549    -2.1037     0.1556 H       
  45 H45           -1.4573     2.7082    -0.1224 H       
  46 H46           -3.1564     3.2812    -0.2316 H       
  47 H47           -4.5449    -0.7710    -0.0961 H       
  48 H48           -5.4813     4.0691    -0.3744 H       
  49 H49            1.2364     0.1511    -2.9229 H       
  50 H50            1.9319     1.4929    -3.8652 H       
  51 H51            3.3845    -1.0555    -3.0180 H       
  52 H52            2.8333    -0.6598    -4.6638 H       
  53 H53            5.2020     0.2432    -2.0623 H       
  54 H54            5.9197     1.5457    -3.0408 H       
  55 H55            3.8357     2.8533    -2.8641 H       
  56 H56            4.4371     2.4381    -1.2398 H       
@<TRIPOS>BOND
   1    1    2 ar
   2    1    3 1
   3    1   16 ar
   4    2   14 ar
   5    2   35 1
   6    3    4 1
   7    3   36 1
   8    3   37 1
   9    4    5 am
  10    4   13 1
  11    5    6 1
  12    5   11 2
  13    6    7 2
  14    6    8 1
  15    7   10 1
  16    7   38 1
  17    8    9 2
  18    9   10 1
  19    9   39 1
  20   10   12 1
  21   12   40 1
  22   12   41 1
  23   12   42 1
  24   13   26 1
  25   13   30 1
  26   13   43 1
  27   14   19 ar
  28   14   44 1
  29   15   16 ar
  30   15   17 1
  31   15   19 ar
  32   16   45 1
  33   17   20 ar
  34   17   18 ar
  35   18   23 ar
  36   18   46 1
  37   20   21 ar
  38   20   47 1
  39   21   22 ar
  40   21   24 1
  41   22   23 ar
  42   22   25 1
  43   23   48 1
  44   25   31 1
  45   26   27 1
  46   26   49 1
  47   26   50 1
  48   27   28 1
  49   27   51 1
  50   27   52 1
  51   28   29 1
  52   29   30 1
  53   29   53 1
  54   29   54 1
  55   30   55 1
  56   30   56 1
  57   31   32 1
  58   31   33 1
  59   31   34 1

#	End of record

