#	Name: ASD01914367
#	Creating user name:	WinNT
#	Creation time:	15. 06. 2019 20:03

#	Modifying user name:	WinNT
#	Modification time:	15. 06. 2019 20:03

#	Program:	/corina/corina34_cracker 3.40 0067  02.08.2006

@<TRIPOS>MOLECULE
ASD01914367
  36   38    0    0    0
SMALL
NO_CHARGES


@<TRIPOS>ATOM
   1 C1            -0.0144     1.3508    -0.0034 C.ar    
   2 C2            -0.0103    -0.0273     0.0059 C.ar    
   3 C3            -1.2783    -0.8423     0.0086 C.3     
   4 C4            -2.4602    -0.0081     0.4993 C.3     
   5 N5            -2.4353     1.2792    -0.2148 N.am    
   6 C6            -1.2860     2.1591     0.0246 C.3     
   7 C7            -3.4281     1.6349    -1.0540 C.2     
   8 C8            -3.4406     2.9852    -1.6530 C.ar    
   9 O9            -4.3133     0.8446    -1.3180 O.2     
  10 C10            1.1918     2.0376    -0.0254 C.ar    
  11 C11            2.3821     1.3053    -0.0287 C.ar    
  12 C12            2.3065    -0.0877    -0.0091 C.ar    
  13 N13            1.1402    -0.6910     0.0075 N.ar    
  14 C14            3.6914     1.9910    -0.0529 C.2     
  15 C15           -3.9132     3.1703    -2.9540 C.ar    
  16 C16           -3.9231     4.4324    -3.5080 C.ar    
  17 C17           -3.4649     5.5171    -2.7759 C.ar    
  18 C18           -2.9942     5.3389    -1.4839 C.ar    
  19 C19           -2.9853     4.0820    -0.9183 C.ar    
  20 F20           -3.4768     6.7521    -3.3236 F       
  21 C21            4.8112     1.2815    -0.0558 C.2     
  22 H22           -1.4819    -1.1919    -1.0036 H       
  23 H23           -1.1499    -1.7029     0.6651 H       
  24 H24           -3.3932    -0.5297     0.2862 H       
  25 H25           -2.3699     0.1637     1.5719 H       
  26 H26           -1.3912     2.6362     0.9990 H       
  27 H27           -1.2469     2.9239    -0.7510 H       
  28 H28            1.2100     3.1173    -0.0400 H       
  29 H29            3.2136    -0.6740    -0.0076 H       
  30 H30            3.7356     3.0699    -0.0683 H       
  31 H31           -4.2699     2.3260    -3.5252 H       
  32 H32           -4.2880     4.5766    -4.5142 H       
  33 H33           -2.6382     6.1872    -0.9182 H       
  34 H34           -2.6187     3.9443     0.0883 H       
  35 H35            4.7669     0.2025    -0.0404 H       
  36 H36            5.7678     1.7825    -0.0735 H       
@<TRIPOS>BOND
   1    1    2 ar
   2    1   10 ar
   3    1    6 1
   4    2    3 1
   5    2   13 ar
   6    3    4 1
   7    3   22 1
   8    3   23 1
   9    4    5 1
  10    4   24 1
  11    4   25 1
  12    5    6 1
  13    5    7 am
  14    6   26 1
  15    6   27 1
  16    7    8 1
  17    7    9 2
  18    8   15 ar
  19    8   19 ar
  20   10   11 ar
  21   10   28 1
  22   11   12 ar
  23   11   14 1
  24   12   13 ar
  25   12   29 1
  26   14   21 2
  27   14   30 1
  28   15   16 ar
  29   15   31 1
  30   16   17 ar
  31   16   32 1
  32   17   18 ar
  33   17   20 1
  34   18   19 ar
  35   18   33 1
  36   19   34 1
  37   21   35 1
  38   21   36 1

#	End of record

