#	Name: ASD01903327
#	Creating user name:	WinNT
#	Creation time:	15. 06. 2019 19:54

#	Modifying user name:	WinNT
#	Modification time:	15. 06. 2019 19:54

#	Program:	/corina/corina34_cracker 3.40 0067  02.08.2006

@<TRIPOS>MOLECULE
ASD01903327
  34   37    0    0    0
SMALL
NO_CHARGES


@<TRIPOS>ATOM
   1 N1            -0.0111     0.9658     0.0074 N.pl3   
   2 H2             0.0021    -0.0041     0.0020 H       
   3 C3             1.1798     1.6752    -0.0002 C.2     
   4 C4            -1.2332     1.6495     0.0169 C.2     
   5 S5             2.7904     0.9610    -0.0194 S.3     
   6 C6             3.5026     2.5663     0.0088 C.2     
   7 C7             2.5025     3.4784    -0.0229 C.2     
   8 N8             1.2824     2.9703     0.0001 N.2     
   9 C9            -1.3984     3.0440     0.0252 C.2     
  10 C10           -2.7254     3.3046     0.0329 C.2     
  11 N11           -3.3793     2.1239     0.0296 N.pl3   
  12 N12           -2.4246     1.0990     0.0138 N.2     
  13 C13           -4.8334     1.9455     0.0356 C.3     
  14 C14            4.9496     2.9367     0.1101 C.3     
  15 C15            5.5698     3.3707    -1.2277 C.3     
  16 C16            4.5640     4.2833    -1.9546 C.3     
  17 C17            3.8977     5.2630    -1.0385 C.2     
  18 C18            2.8986     4.9169    -0.1765 C.2     
  19 N19            4.1075     6.5813    -0.8877 N.pl3   
  20 N20            3.1629     7.0701     0.0296 N.2     
  21 C21            2.4300     6.0647     0.4514 C.2     
  22 H22           -0.6063     3.7782     0.0258 H       
  23 H23           -3.1810     4.2837     0.0408 H       
  24 H24           -5.1989     1.9068    -0.9905 H       
  25 H25           -5.0832     1.0151     0.5456 H       
  26 H26           -5.2999     2.7818     0.5563 H       
  27 H27            5.0508     3.7550     0.8230 H       
  28 H28            5.5036     2.0778     0.4887 H       
  29 H29            6.4949     3.9170    -1.0436 H       
  30 H30            5.7768     2.4922    -1.8388 H       
  31 H31            5.0894     4.8336    -2.7351 H       
  32 H32            3.7991     3.6619    -2.4204 H       
  33 H33            4.7917     7.1042    -1.3343 H       
  34 H34            1.6139     6.1199     1.1566 H       
@<TRIPOS>BOND
   1    1    2 1
   2    1    3 1
   3    1    4 1
   4    3    5 1
   5    3    8 2
   6    4    9 1
   7    4   12 2
   8    5    6 1
   9    6    7 2
  10    6   14 1
  11    7    8 1
  12    7   18 1
  13    9   10 2
  14    9   22 1
  15   10   11 1
  16   10   23 1
  17   11   12 1
  18   11   13 1
  19   13   24 1
  20   13   25 1
  21   13   26 1
  22   14   15 1
  23   14   27 1
  24   14   28 1
  25   15   16 1
  26   15   29 1
  27   15   30 1
  28   16   17 1
  29   16   31 1
  30   16   32 1
  31   17   18 2
  32   17   19 1
  33   18   21 1
  34   19   20 1
  35   19   33 1
  36   20   21 2
  37   21   34 1

#	End of record

