#	Name: ASD06020038
#	Creating user name:	WinNT
#	Creation time:	15. 06. 2019 21:04

#	Modifying user name:	WinNT
#	Modification time:	15. 06. 2019 21:04

#	Program:	/corina/corina34_cracker 3.40 0067  02.08.2006

@<TRIPOS>MOLECULE
ASD06020038
  37   40    0    0    0
SMALL
NO_CHARGES


@<TRIPOS>ATOM
   1 C1             2.2993     1.3280     0.0130 C.ar    
   2 N2             2.2982     0.0106    -0.0001 N.ar    
   3 C3             1.1548    -0.6720    -0.0054 C.ar    
   4 C4            -0.0487     0.0265     0.0031 C.ar    
   5 C5            -0.0034     1.4172     0.0168 C.ar    
   6 N6             1.1816     2.0252     0.0213 N.ar    
   7 N7             1.1633    -2.0597    -0.0197 N.pl3   
   8 N8            -1.1745     2.1590     0.0253 N.pl3   
   9 C9             2.3679    -2.7472    -0.1400 C.ar    
  10 C10            2.3853    -4.1420    -0.0417 C.ar    
  11 C11            3.5994    -4.8273    -0.1635 C.ar    
  12 C12            4.7621    -4.0458    -0.3837 C.ar    
  13 C13            4.6550    -2.6932    -0.4659 C.ar    
  14 N14            3.4882    -2.0784    -0.3520 N.ar    
  15 S15            1.1067    -5.3221     0.2234 S.3     
  16 C16            2.2833    -6.6277     0.1515 C.2     
  17 N17            3.4690    -6.1500    -0.0500 N.2     
  18 C18            1.9642    -8.0617     0.2997 C.ar    
  19 C19            2.9817    -9.0174     0.2250 C.ar    
  20 C20            2.6798   -10.3554     0.3638 C.ar    
  21 C21            1.3647   -10.7549     0.5774 C.ar    
  22 C22            0.3496    -9.8070     0.6523 C.ar    
  23 C23            0.6445    -8.4667     0.5207 C.ar    
  24 Cl24          -0.6223    -7.2840     0.6215 Cl      
  25 Cl25           4.6232    -8.5200    -0.0427 Cl      
  26 N26            1.0634   -12.1083     0.7162 N.pl3   
  27 H27            3.2439     1.8515     0.0216 H       
  28 H28           -0.9933    -0.4971    -0.0013 H       
  29 H29            0.3299    -2.5506     0.0542 H       
  30 H30           -2.0337     1.7089     0.0216 H       
  31 H31           -1.1347     3.1282     0.0349 H       
  32 H32            5.7261    -4.5220    -0.4849 H       
  33 H33            5.5450    -2.1048    -0.6333 H       
  34 H34            3.4654   -11.0943     0.3062 H       
  35 H35           -0.6703   -10.1210     0.8182 H       
  36 H36            1.7704   -12.7704     0.6639 H       
  37 H37            0.1468   -12.3882     0.8652 H       
@<TRIPOS>BOND
   1    1    2 ar
   2    1    6 ar
   3    1   27 1
   4    2    3 ar
   5    3    4 ar
   6    3    7 1
   7    4    5 ar
   8    4   28 1
   9    5    6 ar
  10    5    8 1
  11    7    9 1
  12    7   29 1
  13    8   30 1
  14    8   31 1
  15    9   10 ar
  16    9   14 ar
  17   10   11 ar
  18   10   15 1
  19   11   12 ar
  20   11   17 1
  21   12   13 ar
  22   12   32 1
  23   13   14 ar
  24   13   33 1
  25   15   16 1
  26   16   17 2
  27   16   18 1
  28   18   19 ar
  29   18   23 ar
  30   19   20 ar
  31   19   25 1
  32   20   21 ar
  33   20   34 1
  34   21   22 ar
  35   21   26 1
  36   22   23 ar
  37   22   35 1
  38   23   24 1
  39   26   36 1
  40   26   37 1

#	End of record

