#	Name: ASD07110007
#	Creating user name:	WinNT
#	Creation time:	15. 06. 2019 21:08

#	Modifying user name:	WinNT
#	Modification time:	15. 06. 2019 21:08

#	Program:	/corina/corina34_cracker 3.40 0067  02.08.2006

@<TRIPOS>MOLECULE
ASD07110007
 155  156    0    0    0
SMALL
NO_CHARGES


@<TRIPOS>ATOM
   1 C1            -3.1492    15.7707     2.2084 C.2     
   2 O2            -2.2200    15.0650     1.8772 O.2     
   3 N3            -1.5130    17.1813     3.3211 N.3     
   4 C4            -2.8879    17.1291     2.8062 C.3     
   5 C5            -3.0712    18.2030     1.7319 C.3     
   6 C6            -2.9287    19.5881     2.3658 C.3     
   7 C7            -3.1093    20.6458     1.3077 C.2     
   8 O8            -3.3303    20.3235     0.1595 O.2     
   9 N9            -3.0253    21.9500     1.6372 N.am    
  10 C10           -6.0335    14.0140     0.8091 C.2     
  11 O11           -6.7252    15.0098     0.8395 O.2     
  12 N12           -4.4154    15.3423     2.0366 N.am    
  13 C13           -4.6695    14.0242     1.4498 C.3     
  14 C14           -4.6132    12.9584     2.5462 C.3     
  15 C15           -3.1935    12.8829     3.1116 C.3     
  16 C16           -3.1380    11.8332     4.1914 C.2     
  17 O17           -4.1320    11.2095     4.4793 O.2     
  18 O18           -1.9843    11.5912     4.8335 O.3     
  19 C19           -8.3971    11.4558    -0.1855 C.2     
  20 O20           -7.6997    10.5747     0.2708 O.2     
  21 N21           -6.4846    12.8984     0.2022 N.am    
  22 C22           -7.8504    12.8531    -0.3259 C.3     
  23 C23           -7.8394    13.2504    -1.8034 C.3     
  24 C24           -6.8177    12.3939    -2.5542 C.3     
  25 C25           -7.3186    10.9501    -2.6281 C.3     
  26 C26           -7.4596    14.7269    -1.9317 C.3     
  27 C27          -10.6851     9.4116    -1.8689 C.2     
  28 O28          -10.6401    10.1982    -2.7909 O.2     
  29 N29           -9.6611    11.1852    -0.5670 N.am    
  30 C30          -10.1645     9.8105    -0.5121 C.3     
  31 C31          -11.2957     9.7222     0.5144 C.3     
  32 C32          -10.7661    10.0845     1.8780 C.2     
  33 O33           -9.5785    10.2728     2.0369 O.2     
  34 N34          -11.6121    10.1991     2.9208 N.am    
  35 C35          -13.2210     8.3480    -3.3917 C.2     
  36 O36          -13.6779     8.9510    -2.4437 O.2     
  37 N37          -11.2007     8.1808    -2.0576 N.am    
  38 C38          -11.8066     7.8299    -3.3445 C.3     
  39 C39          -11.8151     6.3085    -3.5062 C.3     
  40 C40          -10.3972     5.8030    -3.5775 C.2     
  41 O41           -9.4712     6.5708    -3.4229 O.2     
  42 N42          -10.1582     4.4976    -3.8129 N.am    
  43 C43          -16.2127     7.8374    -5.3837 C.2     
  44 O44          -15.7866     6.7902    -5.8226 O.2     
  45 N45          -13.9782     8.1413    -4.4873 N.am    
  46 C46          -15.3124     8.7391    -4.5791 C.3     
  47 C47          -15.2138    10.1038    -5.2637 C.3     
  48 C48          -14.4929     9.9508    -6.6045 C.3     
  49 C49          -15.3779     9.1629    -7.5724 C.3     
  50 C50          -14.4299    11.0672    -4.3702 C.3     
  51 C51          -19.4345     8.2147    -7.0691 C.2     
  52 O52          -19.5012     9.3950    -6.7981 O.2     
  53 N53          -17.4915     8.1946    -5.6154 N.am    
  54 C54          -18.3387     7.3664    -6.4770 C.3     
  55 C55          -18.9579     6.2377    -5.6502 C.3     
  56 C56          -17.8690     5.3186    -5.1597 C.2     
  57 C57          -17.6404     4.9761    -3.8775 C.2     
  58 N58          -16.5650     4.1292    -3.8795 N.pl3   
  59 C59          -16.1736     3.9836    -5.1638 C.2     
  60 N60          -16.9611     4.6938    -5.9243 N.2     
  61 C61          -22.5831     7.6983    -8.8263 C.2     
  62 O62          -22.5481     6.4882    -8.7520 O.2     
  63 N63          -20.3405     7.6618    -7.8998 N.am    
  64 C64          -21.3386     8.5058    -8.5614 C.3     
  65 C65          -20.7733     9.0210    -9.8864 C.3     
  66 C66          -21.7351    10.0487   -10.4861 C.3     
  67 C67          -21.7640    11.2969    -9.6018 C.3     
  68 C68          -21.2635    10.4297   -11.8908 C.3     
  69 C69          -24.8940     7.1569   -10.9321 C.2     
  70 O70          -23.9704     7.5095   -11.6268 O.2     
  71 N71          -23.7351     8.3207    -9.1457 N.am    
  72 C72          -24.9265     7.5337    -9.4734 C.3     
  73 C73          -26.1800     8.3635    -9.1888 C.3     
  74 C74          -26.2768     8.6363    -7.7098 C.2     
  75 C75          -26.3845     9.8490    -7.1342 C.2     
  76 N76          -26.4448     9.6418    -5.7825 N.pl3   
  77 C77          -26.3719     8.3087    -5.5790 C.2     
  78 N78          -26.2765     7.7135    -6.7365 N.2     
  79 O79          -25.8911     6.4295   -11.4598 O.3     
  80 H80           -1.3848    16.5251     4.0768 H       
  81 H81           -0.8442    17.0184     2.5833 H       
  82 H82           -3.5884    17.3079     3.6219 H       
  83 H83           -2.3127    18.0772     0.9593 H       
  84 H84           -4.0619    18.1069     1.2875 H       
  85 H85           -3.6872    19.7139     3.1385 H       
  86 H86           -1.9380    19.6842     2.8102 H       
  87 H87           -2.8486    22.2078     2.5555 H       
  88 H88           -3.1416    22.6308     0.9561 H       
  89 H89           -5.1585    15.9067     2.3015 H       
  90 H90           -3.9122    13.8100     0.6957 H       
  91 H91           -5.3084    13.2205     3.3437 H       
  92 H92           -4.8892    11.9909     2.1269 H       
  93 H93           -2.4983    12.6209     2.3140 H       
  94 H94           -2.9174    13.8505     3.5308 H       
  95 H95           -1.9979    10.9087     5.5184 H       
  96 H96           -5.9050    12.1255     0.1150 H       
  97 H97           -8.4790    13.5470     0.2322 H       
  98 H98           -8.8299    13.0916    -2.2297 H       
  99 H99           -6.6870    12.7852    -3.5631 H       
 100 H100          -5.8638    12.4211    -2.0275 H       
 101 H101          -7.2944    10.5058    -1.6330 H       
 102 H102          -8.3408    10.9390    -3.0062 H       
 103 H103          -6.6773    10.3769    -3.2976 H       
 104 H104          -6.4320    14.8682    -1.5968 H       
 105 H105          -7.5481    15.0357    -2.9733 H       
 106 H106          -8.1283    15.3288    -1.3163 H       
 107 H107         -10.2376    11.9008    -0.8779 H       
 108 H108          -9.3566     9.1391    -0.2211 H       
 109 H109         -12.0916    10.4138     0.2383 H       
 110 H110         -11.6886     8.7057     0.5355 H       
 111 H111         -12.5618    10.0485     2.7937 H       
 112 H112         -11.2712    10.4323     3.7985 H       
 113 H113         -11.1706     7.5273    -1.3415 H       
 114 H114         -11.2284     8.2780    -4.1526 H       
 115 H115         -12.3200     5.8552    -2.6532 H       
 116 H116         -12.3418     6.0435    -4.4230 H       
 117 H117         -10.8988     3.8836    -3.9365 H       
 118 H118          -9.2456     4.1723    -3.8588 H       
 119 H119         -13.6396     7.5966    -5.2151 H       
 120 H120         -15.7243     8.8640    -3.5776 H       
 121 H121         -16.2156    10.4988    -5.4328 H       
 122 H122         -14.2872    10.9369    -7.0210 H       
 123 H123         -13.5545     9.4171    -6.4537 H       
 124 H124         -16.3910     9.5644    -7.5473 H       
 125 H125         -14.9779     9.2491    -8.5827 H       
 126 H126         -15.3954     8.1139    -7.2768 H       
 127 H127         -13.3996    10.7229    -4.2807 H       
 128 H128         -14.4429    12.0639    -4.8113 H       
 129 H129         -14.8888    11.1012    -3.3821 H       
 130 H130         -17.8508     9.0001    -5.2118 H       
 131 H131         -17.7355     6.9406    -7.2788 H       
 132 H132         -19.4879     6.6609    -4.7969 H       
 133 H133         -19.6567     5.6750    -6.2693 H       
 134 H134         -18.1981     5.3065    -3.0137 H       
 135 H135         -16.1598     3.7116    -3.1034 H       
 136 H136         -15.3482     3.3766    -5.5053 H       
 137 H137         -20.3316     6.7051    -8.0596 H       
 138 H138         -21.5839     9.3508    -7.9180 H       
 139 H139         -19.8047     9.4891    -9.7107 H       
 140 H140         -20.6538     8.1878   -10.5790 H       
 141 H141         -22.7357     9.6202   -10.5426 H       
 142 H142         -22.3760    12.0641   -10.0761 H       
 143 H143         -22.1875    11.0438    -8.6298 H       
 144 H144         -20.7492    11.6720    -9.4694 H       
 145 H145         -21.2429     9.5404   -12.5209 H       
 146 H146         -21.9487    11.1619   -12.3181 H       
 147 H147         -20.2628    10.8582   -11.8344 H       
 148 H148         -23.7753     9.2898    -9.1586 H       
 149 H149         -24.9434     6.6296    -8.8649 H       
 150 H150         -26.1209     9.3082    -9.7294 H       
 151 H151         -27.0622     7.8127    -9.5151 H       
 152 H152         -26.4167    10.8019    -7.6415 H       
 153 H153         -26.5251    10.3248    -5.0985 H       
 154 H154         -26.3930     7.8166    -4.6179 H       
 155 H155         -25.8263     6.2124   -12.3999 H       
@<TRIPOS>BOND
   1    1    2 2
   2    1    4 1
   3    1   12 am
   4    3    4 1
   5    3   80 1
   6    3   81 1
   7    4    5 1
   8    4   82 1
   9    5    6 1
  10    5   83 1
  11    5   84 1
  12    6    7 1
  13    6   85 1
  14    6   86 1
  15    7    8 2
  16    7    9 am
  17    9   87 1
  18    9   88 1
  19   10   11 2
  20   10   13 1
  21   10   21 am
  22   12   13 1
  23   12   89 1
  24   13   14 1
  25   13   90 1
  26   14   15 1
  27   14   91 1
  28   14   92 1
  29   15   16 1
  30   15   93 1
  31   15   94 1
  32   16   17 2
  33   16   18 1
  34   18   95 1
  35   19   20 2
  36   19   22 1
  37   19   29 am
  38   21   22 1
  39   21   96 1
  40   22   23 1
  41   22   97 1
  42   23   24 1
  43   23   26 1
  44   23   98 1
  45   24   25 1
  46   24   99 1
  47   24  100 1
  48   25  101 1
  49   25  102 1
  50   25  103 1
  51   26  104 1
  52   26  105 1
  53   26  106 1
  54   27   28 2
  55   27   30 1
  56   27   37 am
  57   29   30 1
  58   29  107 1
  59   30   31 1
  60   30  108 1
  61   31   32 1
  62   31  109 1
  63   31  110 1
  64   32   33 2
  65   32   34 am
  66   34  111 1
  67   34  112 1
  68   35   36 2
  69   35   38 1
  70   35   45 am
  71   37   38 1
  72   37  113 1
  73   38   39 1
  74   38  114 1
  75   39   40 1
  76   39  115 1
  77   39  116 1
  78   40   41 2
  79   40   42 am
  80   42  117 1
  81   42  118 1
  82   43   44 2
  83   43   46 1
  84   43   53 am
  85   45   46 1
  86   45  119 1
  87   46   47 1
  88   46  120 1
  89   47   48 1
  90   47   50 1
  91   47  121 1
  92   48   49 1
  93   48  122 1
  94   48  123 1
  95   49  124 1
  96   49  125 1
  97   49  126 1
  98   50  127 1
  99   50  128 1
 100   50  129 1
 101   51   52 2
 102   51   54 1
 103   51   63 am
 104   53   54 1
 105   53  130 1
 106   54   55 1
 107   54  131 1
 108   55   56 1
 109   55  132 1
 110   55  133 1
 111   56   57 2
 112   56   60 1
 113   57   58 1
 114   57  134 1
 115   58   59 1
 116   58  135 1
 117   59   60 2
 118   59  136 1
 119   61   62 2
 120   61   64 1
 121   61   71 am
 122   63   64 1
 123   63  137 1
 124   64   65 1
 125   64  138 1
 126   65   66 1
 127   65  139 1
 128   65  140 1
 129   66   67 1
 130   66   68 1
 131   66  141 1
 132   67  142 1
 133   67  143 1
 134   67  144 1
 135   68  145 1
 136   68  146 1
 137   68  147 1
 138   69   70 2
 139   69   72 1
 140   69   79 1
 141   71   72 1
 142   71  148 1
 143   72   73 1
 144   72  149 1
 145   73   74 1
 146   73  150 1
 147   73  151 1
 148   74   75 2
 149   74   78 1
 150   75   76 1
 151   75  152 1
 152   76   77 1
 153   76  153 1
 154   77   78 2
 155   77  154 1
 156   79  155 1

#	End of record

