#	Name: ASD08520001
#	Creating user name:	WinNT
#	Creation time:	15. 06. 2019 21:19

#	Modifying user name:	WinNT
#	Modification time:	15. 06. 2019 21:19

#	Program:	/corina/corina34_cracker 3.40 0067  02.08.2006

@<TRIPOS>MOLECULE
ASD08520001
 112  119    0    0    0
SMALL
NO_CHARGES


@<TRIPOS>ATOM
   1 C1            -0.0762     1.3545     0.0337 C.ar    
   2 C2            -0.0980    -0.0324     0.0596 C.ar    
   3 C3             1.0932    -0.7398     0.0342 C.ar    
   4 C4             2.3079    -0.0633    -0.0161 C.ar    
   5 C5             2.3239     1.3200    -0.0495 C.ar    
   6 C6             1.1297     2.0236    -0.0209 C.ar    
   7 O7            -1.2837    -0.6950     0.1100 O.3     
   8 Cl8            1.0698    -2.4754     0.0660 Cl      
   9 O9             3.4526    -0.7989    -0.0185 O.3     
  10 C10            4.5982    -0.1457    -0.2910 C.2     
  11 C11            4.7781     1.2213     0.3381 C.3     
  12 C12            3.6125     2.0998    -0.1273 C.3     
  13 O13            5.4453    -0.6281    -1.0050 O.2     
  14 O14            3.8377     2.5124    -1.4768 O.3     
  15 N15            4.7599     1.1033     1.7982 N.am    
  16 C16            5.8910     0.7959     2.4636 C.2     
  17 C17            5.8728     0.6780     3.9214 C.2     
  18 O18            6.9275     0.6164     1.8513 O.2     
  19 C19            7.0117     0.3685     4.5913 C.2     
  20 C20            6.9942     0.2548     5.9973 C.2     
  21 C21            8.1359    -0.0555     6.6689 C.2     
  22 C22            8.1185    -0.1691     8.0731 C.2     
  23 C23            9.2605    -0.4794     8.7449 C.2     
  24 C24            9.2430    -0.5931    10.1500 C.2     
  25 C25           10.3829    -0.9029    10.8206 C.2     
  26 C26           10.3654    -1.0171    12.2333 C.2     
  27 O27            9.3293    -0.8377    12.8452 O.2     
  28 O28           11.4980    -1.3249    12.8995 O.3     
  29 C29           11.4073    -1.4237    14.3222 C.3     
  30 C30           11.0622    -2.8635    14.7149 C.3     
  31 C31           12.1946    -3.7916    14.2676 C.3     
  32 O32           13.4219    -3.3640    14.8619 O.3     
  33 C33           13.8194    -2.0419    14.4927 C.3     
  34 C34           12.7522    -1.0436    14.9490 C.3     
  35 C35           15.1532    -1.7045    15.1621 C.3     
  36 O36           13.1252     0.2936    14.5236 O.3     
  37 C37           13.8725     1.0169    15.3722 C.2     
  38 C38           14.2980     2.4136    14.9989 C.3     
  39 O39           14.2040     0.5482    16.4353 O.2     
  40 C40           11.8901    -5.2019    14.7028 C.ar    
  41 C41           11.0893    -6.0104    13.9062 C.ar    
  42 C42           10.8081    -7.3065    14.3006 C.ar    
  43 C43           11.3244    -7.7829    15.5115 C.ar    
  44 C44           12.1319    -6.9689    16.3026 C.ar    
  45 C45           12.4152    -5.6818    15.8891 C.ar    
  46 O46           10.5822    -5.5287    12.7409 O.3     
  47 C47            9.9752    -8.2081    13.4277 C.3     
  48 C48            9.0151    -9.0390    14.2852 C.3     
  49 C49            9.5549    -9.5986    15.6043 C.3     
  50 C50           10.9745    -9.1574    15.9333 C.2     
  51 O51           11.7636    -9.8821    16.5012 O.2     
  52 O52            9.2221    -7.4135    12.5092 O.3     
  53 C53            7.5307    -8.7488    14.1040 C.3     
  54 C54            6.8298    -8.6070    15.4567 C.3     
  55 C55            7.1697    -9.8334    16.3029 C.3     
  56 C56            8.6143    -9.6979    16.7912 C.3     
  57 C57            6.2405    -9.9538    17.5068 C.3     
  58 C58            6.5562   -11.2491    18.2609 C.3     
  59 C59            7.9898   -11.2063    18.7968 C.3     
  60 C60            8.9352   -10.8939    17.6546 C.2     
  61 O61            9.9089   -11.5761    17.4430 O.2     
  62 O62            9.3659   -10.4233    14.4662 O.3     
  63 O63            7.3767    -7.5347    13.3662 O.3     
  64 O64            7.0491   -11.0103    15.5013 O.3     
  65 O65            8.7336    -8.5170    17.5870 O.3     
  66 C66            5.5816   -11.4066    19.4298 C.3     
  67 H67           -1.0022     1.9100     0.0518 H       
  68 H68            1.1432     3.1033    -0.0414 H       
  69 H69           -1.6554    -0.9027    -0.7581 H       
  70 H70            5.7228     1.6571     0.0129 H       
  71 H71            3.5432     2.9792     0.5130 H       
  72 H72            3.1379     3.0731    -1.8386 H       
  73 H73            3.9338     1.2463     2.2862 H       
  74 H74            4.9531     0.8372     4.4647 H       
  75 H75            7.9314     0.2092     4.0481 H       
  76 H76            6.0744     0.4140     6.5405 H       
  77 H77            9.0557    -0.2148     6.1256 H       
  78 H78            7.1987    -0.0098     8.6163 H       
  79 H79           10.1802    -0.6387     8.2016 H       
  80 H80            8.3232    -0.4338    10.6933 H       
  81 H81           11.3027    -1.0621    10.2773 H       
  82 H82           10.6308    -0.7506    14.6857 H       
  83 H83           10.9443    -2.9278    15.7966 H       
  84 H84           10.1335    -3.1612    14.2280 H       
  85 H85           12.2852    -3.7575    13.1819 H       
  86 H86           13.9312    -1.9849    13.4100 H       
  87 H87           12.6685    -1.0711    16.0355 H       
  88 H88           15.9126    -2.4160    14.8379 H       
  89 H89           15.4562    -0.6961    14.8805 H       
  90 H90           15.0409    -1.7611    16.2448 H       
  91 H91           13.9075     2.6608    14.0118 H       
  92 H92           13.9079     3.1202    15.7314 H       
  93 H93           15.3865     2.4699    14.9836 H       
  94 H94           12.5368    -7.3430    17.2313 H       
  95 H95           13.0416    -5.0462    16.4973 H       
  96 H96           11.1520    -5.6753    11.9736 H       
  97 H97           10.6309    -8.8763    12.8695 H       
  98 H98            8.7514    -7.9272    11.8388 H       
  99 H99            7.0718    -9.5656    13.5470 H       
 100 H100           7.1796    -7.7053    15.9592 H       
 101 H101           5.7515    -8.5506    15.3077 H       
 102 H102           6.3906    -9.1012    18.1691 H       
 103 H103           5.2051    -9.9737    17.1668 H       
 104 H104           6.4479   -12.0971    17.5847 H       
 105 H105           8.0710   -10.4320    19.5596 H       
 106 H106           8.2467   -12.1737    19.2286 H       
 107 H107           6.4561    -7.2832    13.2104 H       
 108 H108           6.1639   -11.1496    15.1379 H       
 109 H109           8.1642    -8.5102    18.3685 H       
 110 H110           4.5610   -11.4465    19.0490 H       
 111 H111           5.8050   -12.3281    19.9675 H       
 112 H112           5.6844   -10.5576    20.1055 H       
@<TRIPOS>BOND
   1    1    2 ar
   2    1    6 ar
   3    1   67 1
   4    2    3 ar
   5    2    7 1
   6    3    4 ar
   7    3    8 1
   8    4    5 ar
   9    4    9 1
  10    5    6 ar
  11    5   12 1
  12    6   68 1
  13    7   69 1
  14    9   10 1
  15   10   11 1
  16   10   13 2
  17   11   12 1
  18   11   15 1
  19   11   70 1
  20   12   14 1
  21   12   71 1
  22   14   72 1
  23   15   16 am
  24   15   73 1
  25   16   17 1
  26   16   18 2
  27   17   19 2
  28   17   74 1
  29   19   20 1
  30   19   75 1
  31   20   21 2
  32   20   76 1
  33   21   22 1
  34   21   77 1
  35   22   23 2
  36   22   78 1
  37   23   24 1
  38   23   79 1
  39   24   25 2
  40   24   80 1
  41   25   26 1
  42   25   81 1
  43   26   27 2
  44   26   28 1
  45   28   29 1
  46   29   30 1
  47   29   34 1
  48   29   82 1
  49   30   31 1
  50   30   83 1
  51   30   84 1
  52   31   32 1
  53   31   40 1
  54   31   85 1
  55   32   33 1
  56   33   34 1
  57   33   35 1
  58   33   86 1
  59   34   36 1
  60   34   87 1
  61   35   88 1
  62   35   89 1
  63   35   90 1
  64   36   37 1
  65   37   38 1
  66   37   39 2
  67   38   91 1
  68   38   92 1
  69   38   93 1
  70   40   41 ar
  71   40   45 ar
  72   41   42 ar
  73   41   46 1
  74   42   43 ar
  75   42   47 1
  76   43   44 ar
  77   43   50 1
  78   44   45 ar
  79   44   94 1
  80   45   95 1
  81   46   96 1
  82   47   48 1
  83   47   52 1
  84   47   97 1
  85   48   49 1
  86   48   53 1
  87   48   62 1
  88   49   50 1
  89   49   62 1
  90   49   56 1
  91   50   51 2
  92   52   98 1
  93   53   54 1
  94   53   63 1
  95   53   99 1
  96   54   55 1
  97   54  100 1
  98   54  101 1
  99   55   56 1
 100   55   57 1
 101   55   64 1
 102   56   65 1
 103   56   60 1
 104   57   58 1
 105   57  102 1
 106   57  103 1
 107   58   59 1
 108   58   66 1
 109   58  104 1
 110   59   60 1
 111   59  105 1
 112   59  106 1
 113   60   61 2
 114   63  107 1
 115   64  108 1
 116   65  109 1
 117   66  110 1
 118   66  111 1
 119   66  112 1

#	End of record

