#	Name: ASD06350018
#	Creating user name:	WinNT
#	Creation time:	15. 06. 2019 21:06

#	Modifying user name:	WinNT
#	Modification time:	15. 06. 2019 21:06

#	Program:	/corina/corina34_cracker 3.40 0067  02.08.2006

@<TRIPOS>MOLECULE
ASD06350018
  61   66    0    0    0
SMALL
NO_CHARGES


@<TRIPOS>ATOM
   1 F1             3.0200     1.3687    -1.0215 F       
   2 C2             2.2948     2.4905    -0.8198 C.ar    
   3 C3             2.8745     3.7329    -1.0145 C.ar    
   4 C4             2.1349     4.8810    -0.8087 C.ar    
   5 C5             0.8090     4.7889    -0.4069 C.ar    
   6 C6             0.2293     3.5418    -0.2125 C.ar    
   7 C7             0.9708     2.3964    -0.4239 C.ar    
   8 C8            -1.2094     3.4388     0.2241 C.3     
   9 N9             0.0573     5.9520    -0.1972 N.am    
  10 C10           -0.6421     6.4891    -1.2272 C.2     
  11 C11           -1.3822     7.6154    -1.0634 C.2     
  12 C12           -1.4348     8.2437     0.1806 C.2     
  13 C13           -0.7187     7.6968     1.2440 C.2     
  14 C14            0.0362     6.5159     1.0254 C.2     
  15 O15            0.6706     6.0180     1.9393 O.2     
  16 C16           -0.7491     8.3303     2.5708 C.2     
  17 O17           -1.3125     9.3979     2.7224 O.2     
  18 N18           -0.1528     7.7282     3.6188 N.am    
  19 C19           -0.0514     8.3962     4.8451 C.ar    
  20 C20           -0.0597     7.6750     6.0314 C.ar    
  21 C21            0.0404     8.3338     7.2416 C.ar    
  22 C22            0.1497     9.7155     7.2727 C.ar    
  23 C23            0.1582    10.4390     6.0862 C.ar    
  24 C24            0.0633     9.7801     4.8748 C.ar    
  25 F25            0.2638    11.7855     6.1166 F       
  26 O26            0.2482    10.3631     8.4647 O.3     
  27 C27           -0.8722    10.9290     8.9758 C.ar    
  28 N28           -2.0500    10.7455     8.3858 N.ar    
  29 C29           -3.1443    11.2919     8.8759 C.ar    
  30 N30           -3.1235    12.0380     9.9614 N.ar    
  31 C31           -1.9844    12.2688    10.6092 C.ar    
  32 C32           -0.8077    11.7048    10.1276 C.ar    
  33 O33           -1.9718    13.0369    11.7242 O.3     
  34 N34           -3.2444    13.5352    12.0947 N.pl3   
  35 N35           -4.3515    13.3162    11.4736 N.2     
  36 N36           -5.3439    13.9014    12.0467 N.2     
  37 C37           -4.9000    14.5664    13.1302 C.ar    
  38 C38           -3.5117    14.3283    13.1786 C.ar    
  39 C39           -2.7523    14.8884    14.1998 C.ar    
  40 C40           -3.3580    15.6645    15.1476 C.ar    
  41 C41           -4.7268    15.9013    15.1031 C.ar    
  42 C42           -5.4964    15.3603    14.1141 C.ar    
  43 H43            3.9058     3.8042    -1.3271 H       
  44 H44            2.5876     5.8498    -0.9600 H       
  45 H45            0.5204     1.4264    -0.2730 H       
  46 H46           -1.8537     3.3990    -0.6542 H       
  47 H47           -1.3456     2.5337     0.8159 H       
  48 H48           -1.4695     4.3093     0.8263 H       
  49 H49           -0.6095     6.0124    -2.1958 H       
  50 H50           -1.9311     8.0258    -1.8981 H       
  51 H51           -2.0211     9.1403     0.3177 H       
  52 H52            0.2060     6.8321     3.5236 H       
  53 H53           -0.1448     6.5986     6.0082 H       
  54 H54            0.0332     7.7721     8.1640 H       
  55 H55            0.0698    10.3417     3.9523 H       
  56 H56           -4.0852    11.1236     8.3730 H       
  57 H57            0.1333    11.8728    10.6302 H       
  58 H58           -1.6880    14.7104    14.2440 H       
  59 H59           -2.7666    16.0983    15.9402 H       
  60 H60           -5.1871    16.5174    15.8613 H       
  61 H61           -6.5592    15.5504    14.0878 H       
@<TRIPOS>BOND
   1    1    2 1
   2    2    3 ar
   3    2    7 ar
   4    3    4 ar
   5    3   43 1
   6    4    5 ar
   7    4   44 1
   8    5    6 ar
   9    5    9 1
  10    6    7 ar
  11    6    8 1
  12    7   45 1
  13    8   46 1
  14    8   47 1
  15    8   48 1
  16    9   10 1
  17    9   14 am
  18   10   11 2
  19   10   49 1
  20   11   12 1
  21   11   50 1
  22   12   13 2
  23   12   51 1
  24   13   14 1
  25   13   16 1
  26   14   15 2
  27   16   17 2
  28   16   18 am
  29   18   19 1
  30   18   52 1
  31   19   20 ar
  32   19   24 ar
  33   20   21 ar
  34   20   53 1
  35   21   22 ar
  36   21   54 1
  37   22   23 ar
  38   22   26 1
  39   23   24 ar
  40   23   25 1
  41   24   55 1
  42   26   27 1
  43   27   28 ar
  44   27   32 ar
  45   28   29 ar
  46   29   30 ar
  47   29   56 1
  48   30   31 ar
  49   31   32 ar
  50   31   33 1
  51   32   57 1
  52   33   34 1
  53   34   35 1
  54   34   38 1
  55   35   36 2
  56   36   37 1
  57   37   38 ar
  58   37   42 ar
  59   38   39 ar
  60   39   40 ar
  61   39   58 1
  62   40   41 ar
  63   40   59 1
  64   41   42 ar
  65   41   60 1
  66   42   61 1

#	End of record

