#	Name: ASD01880437
#	Creating user name:	WinNT
#	Creation time:	15. 06. 2019 19:40

#	Modifying user name:	WinNT
#	Modification time:	15. 06. 2019 19:40

#	Program:	/corina/corina34_cracker 3.40 0067  02.08.2006

@<TRIPOS>MOLECULE
ASD01880437
  41   44    0    0    0
SMALL
NO_CHARGES


@<TRIPOS>ATOM
   1 C1            -0.0167     1.3817     0.0096 C.ar    
   2 C2             0.0021    -0.0041     0.0020 C.ar    
   3 C3             1.1999    -0.6908    -0.0131 C.ar    
   4 C4             2.3970     0.0098    -0.0208 C.ar    
   5 C5             2.3793     1.4138    -0.0131 C.ar    
   6 C6             1.1636     2.0951     0.0022 C.ar    
   7 N7             3.6177    -0.6568    -0.0355 N.pl3   
   8 C8             4.7878     0.0399    -0.0427 C.2     
   9 N9             4.8085     1.4273    -0.0356 N.am    
  10 C10            3.6625     2.1388    -0.0212 C.2     
  11 N11            3.9273    -2.0244    -0.0451 N.2     
  12 C12            5.2376    -2.1526    -0.0576 C.2     
  13 C13            5.8055    -0.8673    -0.0564 C.2     
  14 C14            6.0940     2.1298    -0.0438 C.3     
  15 O15            3.6878     3.3551    -0.0153 O.2     
  16 C16           -1.2967    -0.7684     0.0108 C.3     
  17 C17            5.9859    -3.4341    -0.0698 C.ar    
  18 C18            5.2978    -4.6445    -0.0690 C.ar    
  19 C19            6.0021    -5.8375    -0.0809 C.ar    
  20 C20            7.3899    -5.8241    -0.0935 C.ar    
  21 C21            8.0735    -4.6225    -0.0942 C.ar    
  22 C22            7.3796    -3.4294    -0.0878 C.ar    
  23 O23            5.3340    -7.0210    -0.0798 O.3     
  24 C24            6.1237    -8.2118    -0.0924 C.3     
  25 H25           -0.9609     1.9059     0.0170 H       
  26 H26            1.2047    -1.7708    -0.0186 H       
  27 H27            1.1460     3.1750     0.0078 H       
  28 H28            6.8610    -0.6387    -0.0654 H       
  29 H29            6.4032     2.3095    -1.0735 H       
  30 H30            5.9908     3.0823     0.4760 H       
  31 H31            6.8443     1.5204     0.4599 H       
  32 H32           -1.6200    -0.9472    -1.0146 H       
  33 H33           -1.1534    -1.7224     0.5182 H       
  34 H34           -2.0560    -0.1884     0.5354 H       
  35 H35            4.2179    -4.6533    -0.0589 H       
  36 H36            7.9372    -6.7551    -0.1024 H       
  37 H37            9.1535    -4.6174    -0.1036 H       
  38 H38            7.9166    -2.4923    -0.0887 H       
  39 H39            6.7443    -8.2267    -0.9884 H       
  40 H40            6.7611    -8.2345     0.7915 H       
  41 H41            5.4681    -9.0826    -0.0901 H       
@<TRIPOS>BOND
   1    1    2 ar
   2    1    6 ar
   3    1   25 1
   4    2    3 ar
   5    2   16 1
   6    3    4 ar
   7    3   26 1
   8    4    5 ar
   9    4    7 1
  10    5    6 ar
  11    5   10 1
  12    6   27 1
  13    7    8 1
  14    7   11 1
  15    8    9 1
  16    8   13 2
  17    9   10 am
  18    9   14 1
  19   10   15 2
  20   11   12 2
  21   12   13 1
  22   12   17 1
  23   13   28 1
  24   14   29 1
  25   14   30 1
  26   14   31 1
  27   16   32 1
  28   16   33 1
  29   16   34 1
  30   17   18 ar
  31   17   22 ar
  32   18   19 ar
  33   18   35 1
  34   19   20 ar
  35   19   23 1
  36   20   21 ar
  37   20   36 1
  38   21   22 ar
  39   21   37 1
  40   22   38 1
  41   23   24 1
  42   24   39 1
  43   24   40 1
  44   24   41 1

#	End of record

