#	Name: ASD08170220
#	Creating user name:	WinNT
#	Creation time:	15. 06. 2019 21:17

#	Modifying user name:	WinNT
#	Modification time:	15. 06. 2019 21:17

#	Program:	/corina/corina34_cracker 3.40 0067  02.08.2006

@<TRIPOS>MOLECULE
ASD08170220
  70   73    0    0    0
SMALL
NO_CHARGES


@<TRIPOS>ATOM
   1 N1            -0.0150     1.2583     0.0090 N.2     
   2 N2             0.0021    -0.0041     0.0020 N.2     
   3 C3             1.1271     1.8769     0.0014 C.2     
   4 S4             2.3826     0.7116    -0.0169 S.3     
   5 C5             1.1681    -0.5677    -0.0121 C.2     
   6 C6             1.4387    -2.0502    -0.0217 C.3     
   7 C7             1.5173    -2.5450    -1.4674 C.3     
   8 C8             1.7920    -4.0501    -1.4771 C.3     
   9 C9             1.8707    -4.5448    -2.9228 C.3     
  10 C10            2.1412    -6.0273    -2.9323 C.2     
  11 N11            1.2495    -6.9667    -2.9293 N.2     
  12 S12            3.7292    -6.7949    -2.9574 S.3     
  13 C13            2.9664    -8.3288    -2.9528 C.2     
  14 N14            1.6794    -8.1537    -2.9388 N.2     
  15 N15            3.6171    -9.5578    -2.9674 N.am    
  16 C16            2.9010   -10.6996    -2.9618 C.2     
  17 O17            1.6891   -10.6553    -2.9442 O.2     
  18 C18            3.6061   -12.0314    -2.9776 C.3     
  19 N19            1.3017     3.2566     0.0071 N.am    
  20 C20            4.3903   -12.1997    -1.7018 C.ar    
  21 C21            0.2284     4.0717     0.0222 C.2     
  22 C22            0.4176     5.5667     0.0285 C.3     
  23 O23           -0.8897     3.6019     0.0309 O.2     
  24 C24            5.7305   -11.8626    -1.6646 C.ar    
  25 C25            6.4498   -12.0170    -0.4943 C.ar    
  26 C26            5.8290   -12.5081     0.6389 C.ar    
  27 C27            4.4886   -12.8444     0.6020 C.ar    
  28 C28            3.7682   -12.6858    -0.5671 C.ar    
  29 C29            1.0892     5.9827     1.3118 C.ar    
  30 C30            2.4472     6.2406     1.3292 C.ar    
  31 C31            3.0633     6.6221     2.5064 C.ar    
  32 C32            2.3213     6.7463     3.6661 C.ar    
  33 C33            0.9631     6.4893     3.6485 C.ar    
  34 C34            0.3463     6.1120     2.4703 C.ar    
  35 O35           -0.8757     6.2187    -0.0744 O.3     
  36 C36           -1.3269     6.4857    -1.3101 C.2     
  37 O37            2.6258   -13.0968    -3.0873 O.3     
  38 C38            3.0131   -14.2192    -3.7133 C.2     
  39 C39            2.0497   -15.3680    -3.8652 C.3     
  40 O40            4.1341   -14.3084    -4.1551 O.2     
  41 C41           -2.6614     7.1610    -1.4953 C.3     
  42 O42           -0.6632     6.1846    -2.2738 O.2     
  43 H43            2.3840    -2.2503     0.4827 H       
  44 H44            0.6331    -2.5700     0.4969 H       
  45 H45            0.5720    -2.3449    -1.9718 H       
  46 H46            2.3230    -2.0252    -1.9860 H       
  47 H47            2.7374    -4.2501    -0.9727 H       
  48 H48            0.9864    -4.5698    -0.9585 H       
  49 H49            0.9253    -4.3448    -3.4272 H       
  50 H50            2.6763    -4.0251    -3.4413 H       
  51 H51            4.5863    -9.5933    -2.9815 H       
  52 H52            4.2849   -12.0731    -3.8295 H       
  53 H53            2.1959     3.6323     0.0002 H       
  54 H54            1.0396     5.8578    -0.8180 H       
  55 H55            6.2155   -11.4789    -2.5500 H       
  56 H56            7.4970   -11.7543    -0.4655 H       
  57 H57            6.3912   -12.6294     1.5530 H       
  58 H58            4.0037   -13.2284     1.4873 H       
  59 H59            2.7210   -12.9485    -0.5959 H       
  60 H60            3.0269     6.1436     0.4231 H       
  61 H61            4.1244     6.8229     2.5201 H       
  62 H62            2.8027     7.0437     4.5860 H       
  63 H63            0.3835     6.5860     4.5546 H       
  64 H64           -0.7148     5.9112     2.4566 H       
  65 H65            1.1778   -15.0387    -4.4304 H       
  66 H66            2.5391   -16.1850    -4.3955 H       
  67 H67            1.7353   -15.7114    -2.8796 H       
  68 H68           -2.5226     8.2421    -1.5098 H       
  69 H69           -3.1038     6.8389    -2.4380 H       
  70 H70           -3.3228     6.8906    -0.6723 H       
@<TRIPOS>BOND
   1    1    2 1
   2    1    3 2
   3    2    5 2
   4    3    4 1
   5    3   19 1
   6    4    5 1
   7    5    6 1
   8    6    7 1
   9    6   43 1
  10    6   44 1
  11    7    8 1
  12    7   45 1
  13    7   46 1
  14    8    9 1
  15    8   47 1
  16    8   48 1
  17    9   10 1
  18    9   49 1
  19    9   50 1
  20   10   11 2
  21   10   12 1
  22   11   14 1
  23   12   13 1
  24   13   14 2
  25   13   15 1
  26   15   16 am
  27   15   51 1
  28   16   17 2
  29   16   18 1
  30   18   20 1
  31   18   37 1
  32   18   52 1
  33   19   21 am
  34   19   53 1
  35   20   24 ar
  36   20   28 ar
  37   21   23 2
  38   21   22 1
  39   22   29 1
  40   22   35 1
  41   22   54 1
  42   24   25 ar
  43   24   55 1
  44   25   26 ar
  45   25   56 1
  46   26   27 ar
  47   26   57 1
  48   27   28 ar
  49   27   58 1
  50   28   59 1
  51   29   30 ar
  52   29   34 ar
  53   30   31 ar
  54   30   60 1
  55   31   32 ar
  56   31   61 1
  57   32   33 ar
  58   32   62 1
  59   33   34 ar
  60   33   63 1
  61   34   64 1
  62   35   36 1
  63   36   41 1
  64   36   42 2
  65   37   38 1
  66   38   39 1
  67   38   40 2
  68   39   65 1
  69   39   66 1
  70   39   67 1
  71   41   68 1
  72   41   69 1
  73   41   70 1

#	End of record

