#	Name: ASD01811105
#	Creating user name:	WinNT
#	Creation time:	15. 06. 2019 19:26

#	Modifying user name:	WinNT
#	Modification time:	15. 06. 2019 19:26

#	Program:	/corina/corina34_cracker 3.40 0067  02.08.2006

@<TRIPOS>MOLECULE
ASD01811105
  46   49    0    0    0
SMALL
NO_CHARGES


@<TRIPOS>ATOM
   1 C1            -0.6636     1.4725     0.0040 C.2     
   2 C2            -0.4076     0.1541    -0.0325 C.2     
   3 N3            -1.4203    -0.7579     0.0643 N.pl3   
   4 C4            -2.7090    -0.4178     0.1861 C.2     
   5 C5            -3.0746     0.9133     0.2228 C.2     
   6 C6            -2.0085     1.9192     0.1320 C.2     
   7 C7            -1.0779    -2.1820     0.0326 C.3     
   8 C8            -1.2003    -2.6968    -1.3785 C.ar    
   9 O9            -2.2707     3.1112     0.1582 O.2     
  10 C10           -4.4854     1.3106     0.3533 C.2     
  11 O11           -5.3513     0.4613     0.4307 O.2     
  12 O12           -4.8173     2.6165     0.3869 O.3     
  13 C13           -0.0795    -2.7666    -2.1861 C.ar    
  14 C14           -0.1859    -3.2373    -3.4792 C.ar    
  15 C15           -1.4250    -3.6430    -3.9704 C.ar    
  16 C16           -2.5506    -3.5709    -3.1524 C.ar    
  17 C17           -2.4320    -3.1031    -1.8593 C.ar    
  18 C18           -1.5457    -4.1495    -5.3603 C.2     
  19 C19            0.4095     2.5252    -0.0780 C.3     
  20 C20            1.7037     1.9370    -0.6357 C.3     
  21 C21            2.0306     0.6651     0.1567 C.3     
  22 C22            0.9890    -0.3953    -0.1904 C.3     
  23 O23           -0.0329     3.5824    -0.9316 O.3     
  24 C24           -2.7653    -4.6138    -6.0305 C.2     
  25 C25           -2.3931    -4.9739    -7.2704 C.2     
  26 O26           -1.0739    -4.7709    -7.4064 O.3     
  27 C27           -0.5510    -4.2735    -6.2764 C.2     
  28 H28           -3.4647    -1.1862     0.2555 H       
  29 H29           -0.0541    -2.3173     0.3812 H       
  30 H30           -1.7585    -2.7338     0.6810 H       
  31 H31           -5.7568     2.8285     0.4736 H       
  32 H32            0.8805    -2.4519    -1.8043 H       
  33 H33            0.6897    -3.2908    -4.1092 H       
  34 H34           -3.5135    -3.8840    -3.5282 H       
  35 H35           -3.3037    -3.0472    -1.2242 H       
  36 H36            0.5972     2.9246     0.9187 H       
  37 H37            1.5719     1.6904    -1.6892 H       
  38 H38            2.5135     2.6581    -0.5245 H       
  39 H39            3.0238     0.3077    -0.1151 H       
  40 H40            1.9957     0.8785     1.2251 H       
  41 H41            1.1146    -1.2519     0.4719 H       
  42 H42            1.1338    -0.7162    -1.2220 H       
  43 H43            0.6075     4.2997    -1.0336 H       
  44 H44           -3.7601    -4.6575    -5.6123 H       
  45 H45           -3.0497    -5.3641    -8.0340 H       
  46 H46            0.4872    -4.0207    -6.1191 H       
@<TRIPOS>BOND
   1    1    2 2
   2    1   19 1
   3    1    6 1
   4    2    3 1
   5    2   22 1
   6    3    4 1
   7    3    7 1
   8    4    5 2
   9    4   28 1
  10    5    6 1
  11    5   10 1
  12    6    9 2
  13    7    8 1
  14    7   29 1
  15    7   30 1
  16    8   13 ar
  17    8   17 ar
  18   10   11 2
  19   10   12 1
  20   12   31 1
  21   13   14 ar
  22   13   32 1
  23   14   15 ar
  24   14   33 1
  25   15   16 ar
  26   15   18 1
  27   16   17 ar
  28   16   34 1
  29   17   35 1
  30   18   24 1
  31   18   27 2
  32   19   20 1
  33   19   23 1
  34   19   36 1
  35   20   21 1
  36   20   37 1
  37   20   38 1
  38   21   22 1
  39   21   39 1
  40   21   40 1
  41   22   41 1
  42   22   42 1
  43   23   43 1
  44   24   25 2
  45   24   44 1
  46   25   26 1
  47   25   45 1
  48   26   27 1
  49   27   46 1

#	End of record

