#	Name: ASD03330066
#	Creating user name:	WinNT
#	Creation time:	15. 06. 2019 20:36

#	Modifying user name:	WinNT
#	Modification time:	15. 06. 2019 20:36

#	Program:	/corina/corina34_cracker 3.40 0067  02.08.2006

@<TRIPOS>MOLECULE
ASD03330066
  76   80    0    0    0
SMALL
NO_CHARGES


@<TRIPOS>ATOM
   1 C1             0.1298     1.4712     0.0077 C.2     
   2 C2             0.0236     0.2582     0.6188 C.2     
   3 C3             1.3293     2.1195     0.2177 C.2     
   4 C4             2.2156     1.4271     1.0112 C.2     
   5 S5             1.4980    -0.0995     1.5061 S.3     
   6 C6             3.5632     1.8948     1.3887 C.ar    
   7 C7             3.9671     1.8666     2.7271 C.ar    
   8 C8             4.4432     2.3622     0.4099 C.ar    
   9 C9             5.7016     2.7975     0.7691 C.ar    
  10 C10            6.0943     2.7718     2.0970 C.ar    
  11 C11            5.2292     2.3053     3.0726 C.ar    
  12 Cl12           7.6806     3.3207     2.5396 Cl      
  13 C13            1.6378     3.4482    -0.3625 C.ar    
  14 C14            1.5476     3.6487    -1.7392 C.ar    
  15 C15            2.0137     4.5039     0.4671 C.ar    
  16 C16            2.2997     5.7386    -0.0787 C.ar    
  17 C17            2.2140     5.9301    -1.4461 C.ar    
  18 C18            1.8360     4.8879    -2.2736 C.ar    
  19 C19           -1.1478    -0.6193     0.5468 C.2     
  20 O20           -2.2670    -0.1487     0.6332 O.2     
  21 S21            2.5801     7.5096    -2.1357 S.o2    
  22 N22           -0.9860    -1.9475     0.3851 N.am    
  23 C23           -2.1494    -2.8278     0.2115 C.3     
  24 C24            0.3577    -2.5419     0.3727 C.3     
  25 C25            0.5176    -3.3727    -0.9043 C.3     
  26 C26           -0.6211    -4.3914    -0.9913 C.3     
  27 C27           -1.9562    -3.6549    -1.0634 C.3     
  28 C28           -0.4481    -5.2334    -2.2292 C.ar    
  29 C29           -1.3786    -5.1626    -3.2489 C.ar    
  30 C30           -1.2199    -5.9349    -4.3843 C.ar    
  31 C31           -0.1304    -6.7778    -4.5002 C.ar    
  32 C32            0.8007    -6.8479    -3.4808 C.ar    
  33 C33            0.6443    -6.0723    -2.3473 C.ar    
  34 Cl34           2.8835     1.2820     3.9510 Cl      
  35 C35           -0.5953    -5.2786     0.2266 C.2     
  36 O36            0.3224    -5.1988     1.0156 O.2     
  37 N37           -1.5919    -6.1606     0.4391 N.am    
  38 C38            4.3594     7.4502    -2.4836 C.3     
  39 C39            4.8046     8.7811    -3.0931 C.3     
  40 C40            6.3054     8.7310    -3.3865 C.3     
  41 C41            6.7506    10.0619    -3.9960 C.3     
  42 O42            8.1523    10.0151    -4.2701 O.3     
  43 O43            1.8363     7.5446    -3.3459 O.2     
  44 O44            2.3083     8.4235    -1.0820 O.2     
  45 H45           -0.6608     1.8902    -0.5972 H       
  46 H46            4.1390     2.3824    -0.6262 H       
  47 H47            6.3826     3.1591     0.0129 H       
  48 H48            5.5415     2.2882     4.1063 H       
  49 H49            1.2529     2.8358    -2.3862 H       
  50 H50            2.0806     4.3556     1.5348 H       
  51 H51            2.5906     6.5572     0.5629 H       
  52 H52            1.7711     5.0431    -3.3404 H       
  53 H53           -2.2347    -3.4942     1.0699 H       
  54 H54           -3.0535    -2.2254     0.1228 H       
  55 H55            1.1073    -1.7508     0.3903 H       
  56 H56            0.4810    -3.1844     1.2445 H       
  57 H57            0.4844    -2.7149    -1.7728 H       
  58 H58            1.4732    -3.8964    -0.8803 H       
  59 H59           -2.7668    -4.3785    -1.1490 H       
  60 H60           -1.9622    -2.9967    -1.9323 H       
  61 H61           -2.2299    -4.5041    -3.1584 H       
  62 H62           -1.9473    -5.8801    -5.1807 H       
  63 H63           -0.0067    -7.3817    -5.3869 H       
  64 H64            1.6518    -7.5067    -3.5711 H       
  65 H65            1.3717    -6.1271    -1.5508 H       
  66 H66           -2.2871    -6.2767    -0.2273 H       
  67 H67           -1.6140    -6.6794     1.2584 H       
  68 H68            4.9052     7.2745    -1.5566 H       
  69 H69            4.5657     6.6421    -3.1854 H       
  70 H70            4.2588     8.9568    -4.0201 H       
  71 H71            4.5984     9.5892    -2.3913 H       
  72 H72            6.8512     8.5553    -2.4595 H       
  73 H73            6.5116     7.9229    -4.0884 H       
  74 H74            6.2048    10.2376    -4.9230 H       
  75 H75            6.5444    10.8700    -3.2942 H       
  76 H76            8.5044    10.8275    -4.6589 H       
@<TRIPOS>BOND
   1    1    2 2
   2    1    3 1
   3    1   45 1
   4    2   19 1
   5    2    5 1
   6    3    4 2
   7    3   13 1
   8    4    5 1
   9    4    6 1
  10    6    7 ar
  11    6    8 ar
  12    7   34 1
  13    7   11 ar
  14    8    9 ar
  15    8   46 1
  16    9   10 ar
  17    9   47 1
  18   10   11 ar
  19   10   12 1
  20   11   48 1
  21   13   14 ar
  22   13   15 ar
  23   14   18 ar
  24   14   49 1
  25   15   16 ar
  26   15   50 1
  27   16   17 ar
  28   16   51 1
  29   17   18 ar
  30   17   21 1
  31   18   52 1
  32   19   20 2
  33   19   22 am
  34   21   38 1
  35   21   43 2
  36   21   44 2
  37   22   23 1
  38   22   24 1
  39   23   27 1
  40   23   53 1
  41   23   54 1
  42   24   25 1
  43   24   55 1
  44   24   56 1
  45   25   26 1
  46   25   57 1
  47   25   58 1
  48   26   27 1
  49   26   28 1
  50   26   35 1
  51   27   59 1
  52   27   60 1
  53   28   29 ar
  54   28   33 ar
  55   29   30 ar
  56   29   61 1
  57   30   31 ar
  58   30   62 1
  59   31   32 ar
  60   31   63 1
  61   32   33 ar
  62   32   64 1
  63   33   65 1
  64   35   36 2
  65   35   37 am
  66   37   66 1
  67   37   67 1
  68   38   39 1
  69   38   68 1
  70   38   69 1
  71   39   40 1
  72   39   70 1
  73   39   71 1
  74   40   41 1
  75   40   72 1
  76   40   73 1
  77   41   42 1
  78   41   74 1
  79   41   75 1
  80   42   76 1

#	End of record

