#	Name: ASD01208485
#	Creating user name:	WinNT
#	Creation time:	15. 06. 2019 19:09

#	Modifying user name:	WinNT
#	Modification time:	15. 06. 2019 19:09

#	Program:	/corina/corina34_cracker 3.40 0067  02.08.2006

@<TRIPOS>MOLECULE
ASD01208485
  71   74    0    0    0
SMALL
NO_CHARGES


@<TRIPOS>ATOM
   1 N1             0.1207     1.2020     0.2091 N.am    
   2 C2             0.0783    -0.1704     0.0986 C.2     
   3 C3             1.3605    -0.6343     0.0746 C.2     
   4 C4             2.2172     0.4679     0.1718 C.2     
   5 C5             1.4439     1.5910     0.2539 C.2     
   6 C6            -0.9463     2.0238     0.2589 C.2     
   7 O7            -1.4427     2.3102     1.3296 O.2     
   8 O8            -1.4617     2.5271    -0.8777 O.3     
   9 S9             3.6287     3.4531     0.4248 S.3     
  10 C10            1.9350     2.9715     0.3688 C.2     
  11 N11            1.1864     4.0383     0.4454 N.2     
  12 C12            1.8035     5.1929     0.5434 C.2     
  13 C13            3.1399     5.1415     0.5534 C.2     
  14 C14           -1.1437    -0.9962     0.0203 C.ar    
  15 C15           -2.4013    -0.3908     0.0564 C.ar    
  16 C16           -3.5444    -1.1691    -0.0173 C.ar    
  17 C17           -3.4410    -2.5491    -0.1264 C.ar    
  18 C18           -2.1934    -3.1548    -0.1621 C.ar    
  19 C19           -1.0447    -2.3837    -0.0957 C.ar    
  20 O20           -2.0981    -4.5063    -0.2681 O.3     
  21 C21           -0.7875    -5.0541    -0.4239 C.3     
  22 C22           -0.8818    -6.4110    -1.1244 C.3     
  23 C23           -0.1431    -5.2341     0.9521 C.3     
  24 O24           -1.5795    -7.3331    -0.2848 O.3     
  25 C25           -1.7233    -8.6383    -0.8484 C.3     
  26 O26           -4.7689    -0.5812     0.0177 O.3     
  27 C27           -5.5542    -0.8094     1.1000 C.ar    
  28 C28           -5.0501    -1.5192     2.1849 C.ar    
  29 C29           -5.8400    -1.7529     3.2810 C.ar    
  30 C30           -7.1561    -1.2752     3.3073 C.ar    
  31 C31           -7.6587    -0.5606     2.2127 C.ar    
  32 C32           -6.8590    -0.3278     1.1235 C.ar    
  33 C33           -8.0066    -1.5231     4.4786 C.2     
  34 O34           -7.5420    -2.0578     5.4632 O.2     
  35 C35           -9.4566    -1.1131     4.4572 C.3     
  36 C36           -2.6108     3.4052    -0.7484 C.3     
  37 C37           -2.2323     4.6182     0.1038 C.3     
  38 C38           -3.0528     3.8745    -2.1359 C.3     
  39 C39           -3.7582     2.6481    -0.0766 C.3     
  40 H40            1.6612    -1.6686    -0.0047 H       
  41 H41            3.2967     0.4363     0.1803 H       
  42 H42            1.2652     6.1267     0.6113 H       
  43 H43            3.8052     5.9889     0.6281 H       
  44 H44           -2.4825     0.6827     0.1420 H       
  45 H45           -4.3345    -3.1531    -0.1832 H       
  46 H46           -0.0739    -2.8558    -0.1285 H       
  47 H47           -0.1796    -4.3769    -1.0239 H       
  48 H48           -1.4200    -6.2975    -2.0654 H       
  49 H49            0.1216    -6.7879    -1.3229 H       
  50 H50            0.8566    -5.6519     0.8333 H       
  51 H51           -0.0760    -4.2674     1.4512 H       
  52 H52           -0.7510    -5.9113     1.5521 H       
  53 H53           -2.2790    -8.5710    -1.7837 H       
  54 H54           -0.7374    -9.0614    -1.0412 H       
  55 H55           -2.2631    -9.2781    -0.1503 H       
  56 H56           -4.0350    -1.8873     2.1636 H       
  57 H57           -5.4479    -2.3048     4.1225 H       
  58 H58           -8.6731    -0.1904     2.2280 H       
  59 H59           -7.2443     0.2266     0.2806 H       
  60 H60           -9.6679    -0.5729     3.5343 H       
  61 H61          -10.0862    -2.0013     4.5106 H       
  62 H62           -9.6646    -0.4685     5.3112 H       
  63 H63           -1.4149     5.1576    -0.3748 H       
  64 H64           -3.0950     5.2774     0.2009 H       
  65 H65           -1.9175     4.2839     1.0923 H       
  66 H66           -3.3224     3.0103    -2.7430 H       
  67 H67           -3.9154     4.5337    -2.0388 H       
  68 H68           -2.2354     4.4139    -2.6145 H       
  69 H69           -3.4433     2.3137     0.9119 H       
  70 H70           -4.6208     3.3072     0.0205 H       
  71 H71           -4.0278     1.7838    -0.6837 H       
@<TRIPOS>BOND
   1    1    2 1
   2    1    5 1
   3    1    6 am
   4    2    3 2
   5    2   14 1
   6    3    4 1
   7    3   40 1
   8    4    5 2
   9    4   41 1
  10    5   10 1
  11    6    7 2
  12    6    8 1
  13    8   36 1
  14    9   10 1
  15    9   13 1
  16   10   11 2
  17   11   12 1
  18   12   13 2
  19   12   42 1
  20   13   43 1
  21   14   15 ar
  22   14   19 ar
  23   15   16 ar
  24   15   44 1
  25   16   17 ar
  26   16   26 1
  27   17   18 ar
  28   17   45 1
  29   18   19 ar
  30   18   20 1
  31   19   46 1
  32   20   21 1
  33   21   22 1
  34   21   23 1
  35   21   47 1
  36   22   24 1
  37   22   48 1
  38   22   49 1
  39   23   50 1
  40   23   51 1
  41   23   52 1
  42   24   25 1
  43   25   53 1
  44   25   54 1
  45   25   55 1
  46   26   27 1
  47   27   28 ar
  48   27   32 ar
  49   28   29 ar
  50   28   56 1
  51   29   30 ar
  52   29   57 1
  53   30   31 ar
  54   30   33 1
  55   31   32 ar
  56   31   58 1
  57   32   59 1
  58   33   34 2
  59   33   35 1
  60   35   60 1
  61   35   61 1
  62   35   62 1
  63   36   37 1
  64   36   39 1
  65   36   38 1
  66   37   63 1
  67   37   64 1
  68   37   65 1
  69   38   66 1
  70   38   67 1
  71   38   68 1
  72   39   69 1
  73   39   70 1
  74   39   71 1

#	End of record

