#	Name: ASD01914020
#	Creating user name:	WinNT
#	Creation time:	15. 06. 2019 20:02

#	Modifying user name:	WinNT
#	Modification time:	15. 06. 2019 20:02

#	Program:	/corina/corina34_cracker 3.40 0067  02.08.2006

@<TRIPOS>MOLECULE
ASD01914020
  55   57    0    0    0
SMALL
NO_CHARGES


@<TRIPOS>ATOM
   1 C1            -0.0167     1.3773     0.0096 C.ar    
   2 C2             0.0021    -0.0041     0.0020 C.ar    
   3 C3             1.2127    -0.6827    -0.0132 C.ar    
   4 C4             2.3821     1.4130    -0.0131 C.ar    
   5 C5             1.1693     2.0868     0.0021 C.ar    
   6 O6             3.5479     2.1112    -0.0201 O.3     
   7 C7             3.4504     3.5368    -0.0110 C.3     
   8 C8             4.8336     4.1350    -0.0205 C.ar    
   9 N9             4.9732     5.4469    -0.0143 N.ar    
  10 C10            6.1587     6.0202    -0.0221 C.ar    
  11 C11            7.3204     5.2476    -0.0379 C.ar    
  12 C12            7.2045     3.8522    -0.0448 C.ar    
  13 C13            5.9362     3.2995    -0.0300 C.ar    
  14 C14            8.6512     5.8914    -0.0477 C.2     
  15 N15            8.7496     7.2355    -0.0414 N.am    
  16 O16            9.6567     5.2084    -0.0614 O.2     
  17 C17           10.0684     7.8735    -0.0510 C.3     
  18 C18            2.4035     0.0266    -0.0208 C.ar    
  19 O19            1.2305    -2.0416    -0.0202 O.3     
  20 C20           -0.0341    -2.7070    -0.0112 C.3     
  21 C21            9.9522     9.2758    -0.6519 C.3     
  22 C22           10.5966     7.9746     1.3813 C.3     
  23 C23           11.3295     9.9420    -0.6620 C.3     
  24 C24           11.2132    11.3443    -1.2629 C.3     
  25 C25           10.6851    11.2432    -2.6953 C.3     
  26 C26            9.3078    10.5769    -2.6852 C.3     
  27 C27            9.4240     9.1747    -2.0843 C.3     
  28 H28           -0.9597     1.9036     0.0169 H       
  29 H29           -0.9260    -0.5563     0.0083 H       
  30 H30            1.1520     3.1667     0.0077 H       
  31 H31            2.9047     3.8693    -0.8940 H       
  32 H32            2.9214     3.8591     0.8859 H       
  33 H33            6.2324     7.0976    -0.0166 H       
  34 H34            8.0826     3.2235    -0.0571 H       
  35 H35            5.8082     2.2271    -0.0347 H       
  36 H36            7.9473     7.7805    -0.0304 H       
  37 H37           10.7561     7.2772    -0.6506 H       
  38 H38            3.3465    -0.4997    -0.0323 H       
  39 H39           -0.6036    -2.4170    -0.8942 H       
  40 H40            0.1228    -3.7856    -0.0182 H       
  41 H41           -0.5862    -2.4260     0.8856 H       
  42 H42            9.2645     9.8721    -0.0523 H       
  43 H43            9.9088     8.5710     1.9809 H       
  44 H44           10.6794     6.9756     1.8094 H       
  45 H45           11.5778     8.4493     1.3741 H       
  46 H46           11.7057    10.0141     0.3584 H       
  47 H47           12.0172     9.3457    -1.2616 H       
  48 H48           10.5255    11.9407    -0.6633 H       
  49 H49           12.1944    11.8190    -1.2701 H       
  50 H50           10.6023    12.2422    -3.1233 H       
  51 H51           11.3728    10.6469    -3.2948 H       
  52 H52            8.6201    11.1733    -2.0856 H       
  53 H53            8.9315    10.5049    -3.7056 H       
  54 H54           10.1117     8.5783    -2.6839 H       
  55 H55            8.4428     8.7000    -2.0771 H       
@<TRIPOS>BOND
   1    1    2 ar
   2    1    5 ar
   3    1   28 1
   4    2    3 ar
   5    2   29 1
   6    3   18 ar
   7    3   19 1
   8    4    5 ar
   9    4    6 1
  10    4   18 ar
  11    5   30 1
  12    6    7 1
  13    7    8 1
  14    7   31 1
  15    7   32 1
  16    8    9 ar
  17    8   13 ar
  18    9   10 ar
  19   10   11 ar
  20   10   33 1
  21   11   12 ar
  22   11   14 1
  23   12   13 ar
  24   12   34 1
  25   13   35 1
  26   14   15 am
  27   14   16 2
  28   15   17 1
  29   15   36 1
  30   17   21 1
  31   17   22 1
  32   17   37 1
  33   18   38 1
  34   19   20 1
  35   20   39 1
  36   20   40 1
  37   20   41 1
  38   21   23 1
  39   21   27 1
  40   21   42 1
  41   22   43 1
  42   22   44 1
  43   22   45 1
  44   23   24 1
  45   23   46 1
  46   23   47 1
  47   24   25 1
  48   24   48 1
  49   24   49 1
  50   25   26 1
  51   25   50 1
  52   25   51 1
  53   26   27 1
  54   26   52 1
  55   26   53 1
  56   27   54 1
  57   27   55 1

#	End of record

