#	Name: ASD09740095
#	Creating user name:	WinNT
#	Creation time:	15. 06. 2019 21:22

#	Modifying user name:	WinNT
#	Modification time:	15. 06. 2019 21:22

#	Program:	/corina/corina34_cracker 3.40 0067  02.08.2006

@<TRIPOS>MOLECULE
ASD09740095
  58   60    0    0    0
SMALL
NO_CHARGES


@<TRIPOS>ATOM
   1 O1            -0.0144     1.2085     0.0087 O.3     
   2 N2             0.0021    -0.0041     0.0020 N.2     
   3 C3             1.2414     1.6827    -0.0008 C.2     
   4 N4             2.0457     0.6355    -0.0141 N.2     
   5 C5             1.2344    -0.4424    -0.0121 C.2     
   6 C6             1.6617    -1.8646    -0.0231 C.ar    
   7 C7             1.6459     3.1031     0.0026 C.ar    
   8 C8             3.0163    -2.2068    -0.0371 C.ar    
   9 C9             0.7205    -2.8965    -0.0138 C.ar    
  10 C10            1.1608    -4.2051    -0.0241 C.ar    
  11 N11            2.4493    -4.4854    -0.0424 N.ar    
  12 C12            3.3700    -3.5409    -0.0464 C.ar    
  13 C13            2.9998     3.4452    -0.0090 C.ar    
  14 C14            3.3758     4.7714    -0.0058 C.ar    
  15 C15            2.4114     5.7692     0.0093 C.ar    
  16 C16            1.0586     5.4348     0.0214 C.ar    
  17 C17            0.6750     4.1071     0.0115 C.ar    
  18 C18            0.1557    -5.3279    -0.0138 C.3     
  19 N19           -0.1000    -5.7688    -1.3915 N.3     
  20 C20           -1.0774    -6.8651    -1.4205 C.3     
  21 C21           -2.3950    -6.3900    -0.8049 C.3     
  22 C22           -1.3173    -7.2963    -2.8688 C.3     
  23 C23           -0.5378    -8.0508    -0.6181 C.3     
  24 O24           -2.2681    -8.3627    -2.8970 O.3     
  25 O25            2.7869     7.0750     0.0128 O.3     
  26 C26            4.4164     8.8597     0.0066 C.3     
  27 C27            4.1898     7.3466     0.0004 C.3     
  28 O28            0.1159     6.4149     0.0371 O.3     
  29 C29           -2.1584     7.2319     0.0657 C.3     
  30 C30           -1.2514     5.9998     0.0488 C.3     
  31 H31            3.7754    -1.4386    -0.0408 H       
  32 H32           -0.3363    -2.6741     0.0015 H       
  33 H33            4.4145    -3.8150    -0.0616 H       
  34 H34            3.7523     2.6706    -0.0200 H       
  35 H35            4.4232     5.0346    -0.0147 H       
  36 H36           -0.3730     3.8465     0.0205 H       
  37 H37            0.5487    -6.1619     0.5676 H       
  38 H38           -0.7744    -4.9788     0.4345 H       
  39 H39           -0.4040    -4.9980    -1.9673 H       
  40 H40           -2.7794    -5.5453    -1.3766 H       
  41 H41           -3.1203    -7.2035    -0.8265 H       
  42 H42           -2.2241    -6.0829     0.2268 H       
  43 H43           -1.7017    -6.4515    -3.4404 H       
  44 H44           -0.3786    -7.6347    -3.3074 H       
  45 H45           -0.3669    -7.7436     0.4136 H       
  46 H46           -1.2630    -8.8642    -0.6397 H       
  47 H47            0.4009    -8.3893    -1.0567 H       
  48 H48           -2.4689    -8.6872    -3.7856 H       
  49 H49            5.4865     9.0668    -0.0029 H       
  50 H50            3.9532     9.3000    -0.8764 H       
  51 H51            3.9709     9.2901     0.9034 H       
  52 H52            4.6530     6.9062     0.8834 H       
  53 H53            4.6353     6.9161    -0.8964 H       
  54 H54           -3.2013     6.9153     0.0746 H       
  55 H55           -1.9507     7.8237     0.9571 H       
  56 H56           -1.9692     7.8345    -0.8227 H       
  57 H57           -1.4591     5.4080    -0.8427 H       
  58 H58           -1.4406     5.3972     0.9372 H       
@<TRIPOS>BOND
   1    1    2 1
   2    1    3 1
   3    2    5 2
   4    3    4 2
   5    3    7 1
   6    4    5 1
   7    5    6 1
   8    6    8 ar
   9    6    9 ar
  10    7   13 ar
  11    7   17 ar
  12    8   12 ar
  13    8   31 1
  14    9   10 ar
  15    9   32 1
  16   10   11 ar
  17   10   18 1
  18   11   12 ar
  19   12   33 1
  20   13   14 ar
  21   13   34 1
  22   14   15 ar
  23   14   35 1
  24   15   16 ar
  25   15   25 1
  26   16   17 ar
  27   16   28 1
  28   17   36 1
  29   18   19 1
  30   18   37 1
  31   18   38 1
  32   19   20 1
  33   19   39 1
  34   20   21 1
  35   20   22 1
  36   20   23 1
  37   21   40 1
  38   21   41 1
  39   21   42 1
  40   22   24 1
  41   22   43 1
  42   22   44 1
  43   23   45 1
  44   23   46 1
  45   23   47 1
  46   24   48 1
  47   25   27 1
  48   26   27 1
  49   26   49 1
  50   26   50 1
  51   26   51 1
  52   27   52 1
  53   27   53 1
  54   28   30 1
  55   29   30 1
  56   29   54 1
  57   29   55 1
  58   29   56 1
  59   30   57 1
  60   30   58 1

#	End of record

