#	Name: ASD01883741
#	Creating user name:	WinNT
#	Creation time:	15. 06. 2019 19:47

#	Modifying user name:	WinNT
#	Modification time:	15. 06. 2019 19:47

#	Program:	/corina/corina34_cracker 3.40 0067  02.08.2006

@<TRIPOS>MOLECULE
ASD01883741
  52   55    0    0    0
SMALL
NO_CHARGES


@<TRIPOS>ATOM
   1 C1            -0.0167     1.3832     0.0096 C.2     
   2 C2             0.0021    -0.0041     0.0020 C.2     
   3 C3            -1.2263    -0.7035     0.0099 C.2     
   4 C4            -2.3885    -0.0174     0.0247 C.2     
   5 N5            -2.3984     1.3420     0.0321 N.am    
   6 C6            -1.2521     2.0471     0.0309 C.2     
   7 O7            -1.2876     3.2676     0.0381 O.2     
   8 Cl8            1.4672     2.2841     0.0003 Cl      
   9 C9            -3.6797     2.0521     0.0481 C.3     
  10 C10            1.2875    -0.7397    -0.0146 C.ar    
  11 C11            1.6477    -1.5318     1.0687 C.ar    
  12 C12            2.8600    -2.2190     1.0408 C.ar    
  13 C13            3.7069    -2.1069    -0.0785 C.ar    
  14 C14            3.3253    -1.3071    -1.1532 C.ar    
  15 C15            2.1355    -0.6406    -1.1246 C.ar    
  16 C16           -4.1121     2.2915     1.4961 C.3     
  17 C17            3.5416    -3.1181     1.9761 C.2     
  18 C18            4.6988    -3.4783     1.3996 C.2     
  19 N19            4.8141    -2.8840     0.1724 N.pl3   
  20 C20            5.9487    -3.0505    -0.7393 C.3     
  21 C21            7.2313    -2.5683    -0.0547 C.3     
  22 C22            8.4217    -2.8188    -0.9841 C.3     
  23 O23            8.4883    -4.2094    -1.3064 O.3     
  24 C24            7.3360    -4.7056    -1.9905 C.3     
  25 C25            6.1019    -4.5309    -1.1016 C.3     
  26 C26           -5.4502     3.0331     1.5128 C.3     
  27 C27           -5.8826     3.2725     2.9607 C.3     
  28 H28           -1.2348    -1.7834     0.0039 H       
  29 H29           -3.3244    -0.5563     0.0303 H       
  30 H30           -3.5710     3.0094    -0.4617 H       
  31 H31           -4.4338     1.4525    -0.4618 H       
  32 H32            0.9944    -1.6139     1.9248 H       
  33 H33            3.9718    -1.2177    -2.0137 H       
  34 H34            1.8487    -0.0230    -1.9628 H       
  35 H35           -4.2208     1.3342     2.0058 H       
  36 H36           -3.3580     2.8911     2.0060 H       
  37 H37            3.1814    -3.4309     2.9450 H       
  38 H38            5.4308    -4.1396     1.8392 H       
  39 H39            5.7775    -2.4681    -1.6446 H       
  40 H40            7.1524    -1.5019     0.1569 H       
  41 H41            7.3749    -3.1158     0.8768 H       
  42 H42            8.2970    -2.2392    -1.8988 H       
  43 H43            9.3424    -2.5168    -0.4849 H       
  44 H44            7.1971    -4.1507    -2.9184 H       
  45 H45            7.4746    -5.7629    -2.2164 H       
  46 H46            6.2227    -5.1181    -0.1912 H       
  47 H47            5.2154    -4.8682    -1.6387 H       
  48 H48           -5.3415     3.9904     1.0030 H       
  49 H49           -6.2043     2.4335     1.0029 H       
  50 H50           -6.8359     3.8009     2.9726 H       
  51 H51           -5.9913     2.3152     3.4705 H       
  52 H52           -5.1285     3.8721     3.4707 H       
@<TRIPOS>BOND
   1    1    2 2
   2    1    8 1
   3    1    6 1
   4    2    3 1
   5    2   10 1
   6    3    4 2
   7    3   28 1
   8    4    5 1
   9    4   29 1
  10    5    6 am
  11    5    9 1
  12    6    7 2
  13    9   16 1
  14    9   30 1
  15    9   31 1
  16   10   11 ar
  17   10   15 ar
  18   11   12 ar
  19   11   32 1
  20   12   13 ar
  21   12   17 1
  22   13   14 ar
  23   13   19 1
  24   14   15 ar
  25   14   33 1
  26   15   34 1
  27   16   26 1
  28   16   35 1
  29   16   36 1
  30   17   18 2
  31   17   37 1
  32   18   19 1
  33   18   38 1
  34   19   20 1
  35   20   21 1
  36   20   25 1
  37   20   39 1
  38   21   22 1
  39   21   40 1
  40   21   41 1
  41   22   23 1
  42   22   42 1
  43   22   43 1
  44   23   24 1
  45   24   25 1
  46   24   44 1
  47   24   45 1
  48   25   46 1
  49   25   47 1
  50   26   27 1
  51   26   48 1
  52   26   49 1
  53   27   50 1
  54   27   51 1
  55   27   52 1

#	End of record

