#	Name: ASD02500164
#	Creating user name:	WinNT
#	Creation time:	15. 06. 2019 20:22

#	Modifying user name:	WinNT
#	Modification time:	15. 06. 2019 20:22

#	Program:	/corina/corina34_cracker 3.40 0067  02.08.2006

@<TRIPOS>MOLECULE
ASD02500164
  61   64    0    0    0
SMALL
NO_CHARGES


@<TRIPOS>ATOM
   1 N1             0.9796     1.7481     3.0751 N.am    
   2 C2             0.5423     0.5227     2.3916 C.3     
   3 C3             0.7404     0.7064     0.8818 C.3     
   4 N4             2.1033     1.2022     0.6439 N.am    
   5 C5             2.5406     2.4275     1.3274 C.3     
   6 C6             2.3425     2.2439     2.8371 C.3     
   7 C7             0.1439     2.4084     3.9009 C.2     
   8 O8             0.5440     3.3691     4.5297 O.2     
   9 N9            -1.1352     2.0038     4.0298 N.am    
  10 C10            2.9373     0.5447    -0.1859 C.2     
  11 C11            4.2570     1.1178    -0.5117 C.ar    
  12 C12            5.3515     0.2761    -0.7303 C.ar    
  13 C13            6.5813     0.8138    -1.0340 C.ar    
  14 C14            6.7361     2.1944    -1.1234 C.ar    
  15 C15            5.6481     3.0353    -0.9057 C.ar    
  16 C16            4.4144     2.5035    -0.6079 C.ar    
  17 O17            2.6019    -0.5209    -0.6661 O.2     
  18 S18            8.1034     3.9408    -2.5584 S.o2    
  19 O19            7.1386     4.9219    -2.2039 O.2     
  20 O20            9.4892     4.2258    -2.6911 O.2     
  21 N21            7.9800     2.7346    -1.4304 N.am    
  22 N22            9.4323     1.7551    -4.1334 N.ar    
  23 C23           10.1283     0.7967    -4.6949 C.ar    
  24 C24            9.7539     0.2364    -5.9145 C.ar    
  25 C25            8.6346     0.6850    -6.5557 C.ar    
  26 C26            7.8893     1.7140    -5.9496 C.ar    
  27 C27            6.7281     2.2265    -6.5493 C.ar    
  28 C28            6.0350     3.2225    -5.9313 C.ar    
  29 C29            6.4624     3.7397    -4.7104 C.ar    
  30 C30            7.5841     3.2670    -4.1014 C.ar    
  31 C31            8.3268     2.2395    -4.7083 C.ar    
  32 C32           -2.0136     2.6520     5.0067 C.3     
  33 C33           -3.4009     2.0091     4.9507 C.3     
  34 C34           -4.3183     2.6861     5.9709 C.3     
  35 Cl35          -5.9531     1.9286     5.9049 Cl      
  36 H36            1.1375    -0.3220     2.7385 H       
  37 H37           -0.5116     0.3422     2.6030 H       
  38 H38            0.6055    -0.2498     0.3762 H       
  39 H39            0.0171     1.4285     0.5032 H       
  40 H40            3.5945     2.6081     1.1160 H       
  41 H41            1.9454     3.2722     0.9804 H       
  42 H42            2.4774     3.2001     3.3427 H       
  43 H43            3.0658     1.5218     3.2158 H       
  44 H44           -1.4742     1.2834     3.4757 H       
  45 H45            5.2321    -0.7950    -0.6607 H       
  46 H46            7.4273     0.1640    -1.2027 H       
  47 H47            5.7715     4.1060    -0.9752 H       
  48 H48            3.5696     3.1562    -0.4442 H       
  49 H49            8.7755     2.4050    -0.9838 H       
  50 H50           11.0158     0.4319    -4.1992 H       
  51 H51           10.3484    -0.5518    -6.3524 H       
  52 H52            8.3300     0.2623    -7.5017 H       
  53 H53            6.3867     1.8334    -7.4955 H       
  54 H54            5.1417     3.6162    -6.3934 H       
  55 H55            5.8957     4.5300    -4.2406 H       
  56 H56           -1.5971     2.5307     6.0066 H       
  57 H57           -2.0955     3.7136     4.7735 H       
  58 H58           -3.8174     2.1305     3.9507 H       
  59 H59           -3.3190     0.9475     5.1838 H       
  60 H60           -3.9017     2.5648     6.9709 H       
  61 H61           -4.4001     3.7478     5.7378 H       
@<TRIPOS>BOND
   1    1    2 1
   2    1    6 1
   3    1    7 am
   4    2    3 1
   5    2   36 1
   6    2   37 1
   7    3    4 1
   8    3   38 1
   9    3   39 1
  10    4    5 1
  11    4   10 am
  12    5    6 1
  13    5   40 1
  14    5   41 1
  15    6   42 1
  16    6   43 1
  17    7    8 2
  18    7    9 am
  19    9   32 1
  20    9   44 1
  21   10   11 1
  22   10   17 2
  23   11   12 ar
  24   11   16 ar
  25   12   13 ar
  26   12   45 1
  27   13   14 ar
  28   13   46 1
  29   14   15 ar
  30   14   21 1
  31   15   16 ar
  32   15   47 1
  33   16   48 1
  34   18   19 2
  35   18   20 2
  36   18   21 am
  37   18   30 1
  38   21   49 1
  39   22   23 ar
  40   22   31 ar
  41   23   24 ar
  42   23   50 1
  43   24   25 ar
  44   24   51 1
  45   25   26 ar
  46   25   52 1
  47   26   27 ar
  48   26   31 ar
  49   27   28 ar
  50   27   53 1
  51   28   29 ar
  52   28   54 1
  53   29   30 ar
  54   29   55 1
  55   30   31 ar
  56   32   33 1
  57   32   56 1
  58   32   57 1
  59   33   34 1
  60   33   58 1
  61   33   59 1
  62   34   35 1
  63   34   60 1
  64   34   61 1

#	End of record

