#	Name: ASD01913449
#	Creating user name:	WinNT
#	Creation time:	15. 06. 2019 20:01

#	Modifying user name:	WinNT
#	Modification time:	15. 06. 2019 20:01

#	Program:	/corina/corina34_cracker 3.40 0067  02.08.2006

@<TRIPOS>MOLECULE
ASD01913449
  37   39    0    0    0
SMALL
NO_CHARGES


@<TRIPOS>ATOM
   1 C1             0.9009     0.0775    -1.0340 C.ar    
   2 C2             0.0283    -0.0126     0.0457 C.ar    
   3 C3             0.3741     0.6330     1.2284 C.ar    
   4 N4             1.5123     1.3049     1.2839 N.ar    
   5 C5             2.3128     1.3669     0.2389 C.ar    
   6 N6             2.0205     0.7690    -0.8986 N.ar    
   7 C7            -1.0547    -2.0640    -0.1503 C.ar    
   8 C8            -2.2191    -2.8191    -0.1663 C.ar    
   9 C9            -2.1308    -4.1982    -0.2721 C.ar    
  10 C10           -0.8753    -4.7767    -0.3588 C.ar    
  11 C11            0.2501    -3.9619    -0.3370 C.ar    
  12 N12            0.1303    -2.6471    -0.2349 N.ar    
  13 N13            1.5173    -4.5341    -0.4236 N.am    
  14 C14            2.6080    -3.7467    -0.5060 C.2     
  15 O15           -1.1323    -0.7130    -0.0526 O.3     
  16 C16            3.9396    -4.3494    -0.7256 C.ar    
  17 C17            4.0710    -5.7336    -0.8479 C.ar    
  18 C18            5.3170    -6.2896    -1.0533 C.ar    
  19 C19            6.4344    -5.4785    -1.1378 C.ar    
  20 C20            6.3112    -4.1055    -1.0169 C.ar    
  21 C21            5.0708    -3.5362    -0.8172 C.ar    
  22 O22            2.4966    -2.5410    -0.3998 O.2     
  23 C23            7.5342    -3.2298    -1.1094 C.3     
  24 H24            0.6698    -0.4137    -1.9677 H       
  25 H25           -0.2773     0.5866     2.0885 H       
  26 H26            3.2349     1.9237     0.3169 H       
  27 H27           -3.1832    -2.3375    -0.0966 H       
  28 H28           -3.0217    -4.8086    -0.2864 H       
  29 H29           -0.7722    -5.8485    -0.4419 H       
  30 H30            1.6146    -5.4992    -0.4245 H       
  31 H31            3.1995    -6.3679    -0.7817 H       
  32 H32            5.4201    -7.3605    -1.1478 H       
  33 H33            7.4074    -5.9188    -1.2986 H       
  34 H34            4.9760    -2.4645    -0.7229 H       
  35 H35            7.6967    -2.9411    -2.1478 H       
  36 H36            7.3881    -2.3363    -0.5024 H       
  37 H37            8.4025    -3.7787    -0.7448 H       
@<TRIPOS>BOND
   1    1    2 ar
   2    1    6 ar
   3    1   24 1
   4    2    3 ar
   5    2   15 1
   6    3    4 ar
   7    3   25 1
   8    4    5 ar
   9    5    6 ar
  10    5   26 1
  11    7    8 ar
  12    7   12 ar
  13    7   15 1
  14    8    9 ar
  15    8   27 1
  16    9   10 ar
  17    9   28 1
  18   10   11 ar
  19   10   29 1
  20   11   12 ar
  21   11   13 1
  22   13   14 am
  23   13   30 1
  24   14   16 1
  25   14   22 2
  26   16   17 ar
  27   16   21 ar
  28   17   18 ar
  29   17   31 1
  30   18   19 ar
  31   18   32 1
  32   19   20 ar
  33   19   33 1
  34   20   21 ar
  35   20   23 1
  36   21   34 1
  37   23   35 1
  38   23   36 1
  39   23   37 1

#	End of record

