#	Name: ASD03320133
#	Creating user name:	WinNT
#	Creation time:	15. 06. 2019 20:36

#	Modifying user name:	WinNT
#	Modification time:	15. 06. 2019 20:36

#	Program:	/corina/corina34_cracker 3.40 0067  02.08.2006

@<TRIPOS>MOLECULE
ASD03320133
  43   45    0    0    0
SMALL
NO_CHARGES


@<TRIPOS>ATOM
   1 C1            -0.0181     1.4704     0.0148 C.2     
   2 C2             0.0015    -0.0045     0.0118 C.ar    
   3 C3             1.2208    -0.6889     0.0013 C.ar    
   4 C4             1.2355    -2.0654    -0.0011 C.ar    
   5 C5             0.0372    -2.7760     0.0066 C.ar    
   6 C6            -1.1776    -2.0971     0.0165 C.ar    
   7 C7            -1.1987    -0.7208     0.0252 C.ar    
   8 O8             1.0269     2.0923     0.0082 O.2     
   9 N9            -1.1941     2.1287     0.0193 N.am    
  10 N10            0.0550    -4.1669     0.0037 N.3     
  11 C11           -0.6175    -4.7064     1.1998 C.3     
  12 C12           -1.7453    -5.6383     0.7090 C.3     
  13 C13           -1.2860    -6.0184    -0.7233 C.3     
  14 C14           -0.6197    -4.7029    -1.1976 C.3     
  15 O15           -1.8360    -6.8005     1.5356 O.3     
  16 C16           -1.2149     3.5243     0.1327 C.ar    
  17 C17           -2.1832     4.2613    -0.5363 C.ar    
  18 C18           -2.2030     5.6375    -0.4240 C.ar    
  19 C19           -1.2559     6.2837     0.3568 C.ar    
  20 C20           -0.2882     5.5482     1.0254 C.ar    
  21 C21           -0.2706     4.1715     0.9186 C.ar    
  22 O22           -1.2757     7.6389     0.4665 O.3     
  23 C23           -0.2708     8.2381     1.2869 C.3     
  24 F24           -0.3860     7.7534     2.5942 F       
  25 F25            0.9944     7.9204     0.7815 F       
  26 Cl26          -0.4851    10.0283     1.2886 Cl      
  27 Br27           2.8835    -2.9926    -0.0152 Br      
  28 H28            2.1498    -0.1383    -0.0054 H       
  29 H29           -2.1048    -2.6508     0.0221 H       
  30 H30           -2.1419    -0.1948     0.0378 H       
  31 H31           -2.0262     1.6358    -0.0560 H       
  32 H32            0.0941    -5.2708     1.8024 H       
  33 H33           -1.0395    -3.8910     1.7874 H       
  34 H34           -2.6977    -5.1090     0.6806 H       
  35 H35           -0.5642    -6.8348    -0.6981 H       
  36 H36           -2.1392    -6.2729    -1.3522 H       
  37 H37           -1.3747    -4.0019    -1.5534 H       
  38 H38            0.1087    -4.9080    -1.9822 H       
  39 H39           -2.5300    -7.4191     1.2696 H       
  40 H40           -2.9205     3.7583    -1.1445 H       
  41 H41           -2.9559     6.2108    -0.9445 H       
  42 H42            0.4489     6.0520     1.6330 H       
  43 H43            0.4798     3.5987     1.4431 H       
@<TRIPOS>BOND
   1    1    2 1
   2    1    8 2
   3    1    9 am
   4    2    3 ar
   5    2    7 ar
   6    3    4 ar
   7    3   28 1
   8    4    5 ar
   9    4   27 1
  10    5    6 ar
  11    5   10 1
  12    6    7 ar
  13    6   29 1
  14    7   30 1
  15    9   16 1
  16    9   31 1
  17   10   11 1
  18   10   14 1
  19   11   12 1
  20   11   32 1
  21   11   33 1
  22   12   13 1
  23   12   15 1
  24   12   34 1
  25   13   14 1
  26   13   35 1
  27   13   36 1
  28   14   37 1
  29   14   38 1
  30   15   39 1
  31   16   17 ar
  32   16   21 ar
  33   17   18 ar
  34   17   40 1
  35   18   19 ar
  36   18   41 1
  37   19   20 ar
  38   19   22 1
  39   20   21 ar
  40   20   42 1
  41   21   43 1
  42   22   23 1
  43   23   24 1
  44   23   25 1
  45   23   26 1

#	End of record

