#	Name: ASD03330116
#	Creating user name:	WinNT
#	Creation time:	15. 06. 2019 20:36

#	Modifying user name:	WinNT
#	Modification time:	15. 06. 2019 20:36

#	Program:	/corina/corina34_cracker 3.40 0067  02.08.2006

@<TRIPOS>MOLECULE
ASD03330116
  40   41    0    0    0
SMALL
NO_CHARGES


@<TRIPOS>ATOM
   1 C1             0.0001     1.3112    -0.0462 C.2     
   2 C2             0.0462    -0.1305    -0.2937 C.2     
   3 C3             1.1916    -0.8279    -0.0483 C.2     
   4 O4             0.9506     1.8711     0.4698 O.2     
   5 C5            -1.1528    -0.8326    -0.8113 C.ar    
   6 C6            -2.2932    -0.9456    -0.0174 C.ar    
   7 C7            -3.4070    -1.5995    -0.5020 C.ar    
   8 C8            -3.3930    -2.1448    -1.7782 C.ar    
   9 C9            -2.2591    -2.0344    -2.5711 C.ar    
  10 C10           -1.1442    -1.3761    -2.0951 C.ar    
  11 O11           -4.4920    -2.7889    -2.2526 O.3     
  12 C12           -4.4091    -3.3262    -3.5741 C.3     
  13 N13            1.1519    -2.1859     0.0640 N.pl3   
  14 C14           -0.1371    -2.8820     0.0822 C.3     
  15 C15            2.3981    -2.9492     0.1666 C.3     
  16 C16           -1.1974     2.0886    -0.4279 C.ar    
  17 C17           -1.4382     2.3927    -1.7708 C.ar    
  18 C18           -2.5587     3.1192    -2.1201 C.ar    
  19 C19           -3.4423     3.5463    -1.1432 C.ar    
  20 C20           -3.2083     3.2480     0.1893 C.ar    
  21 C21           -2.0962     2.5174     0.5508 C.ar    
  22 Cl22          -4.8491     4.4601    -1.5901 Cl      
  23 Cl23          -0.3304     1.8586    -2.9961 Cl      
  24 H24            2.1304    -0.3045     0.0571 H       
  25 H25           -2.3045    -0.5221     0.9760 H       
  26 H26           -4.2907    -1.6874     0.1125 H       
  27 H27           -2.2512    -2.4605    -3.5634 H       
  28 H28           -0.2641    -1.2860    -2.7144 H       
  29 H29           -4.2132    -2.5210    -4.2821 H       
  30 H30           -3.6000    -4.0552    -3.6198 H       
  31 H31           -5.3509    -3.8124    -3.8284 H       
  32 H32           -0.4574    -3.0803    -0.9406 H       
  33 H33           -0.0334    -3.8246     0.6197 H       
  34 H34           -0.8794    -2.2591     0.5811 H       
  35 H35            3.2465    -2.2655     0.1357 H       
  36 H36            2.4100    -3.5008     1.1066 H       
  37 H37            2.4651    -3.6491    -0.6663 H       
  38 H38           -2.7464     3.3552    -3.1571 H       
  39 H39           -3.9010     3.5848     0.9463 H       
  40 H40           -1.9182     2.2814     1.5895 H       
@<TRIPOS>BOND
   1    1    2 1
   2    1    4 2
   3    1   16 1
   4    2    3 2
   5    2    5 1
   6    3   13 1
   7    3   24 1
   8    5    6 ar
   9    5   10 ar
  10    6    7 ar
  11    6   25 1
  12    7    8 ar
  13    7   26 1
  14    8    9 ar
  15    8   11 1
  16    9   10 ar
  17    9   27 1
  18   10   28 1
  19   11   12 1
  20   12   29 1
  21   12   30 1
  22   12   31 1
  23   13   14 1
  24   13   15 1
  25   14   32 1
  26   14   33 1
  27   14   34 1
  28   15   35 1
  29   15   36 1
  30   15   37 1
  31   16   17 ar
  32   16   21 ar
  33   17   18 ar
  34   17   23 1
  35   18   19 ar
  36   18   38 1
  37   19   20 ar
  38   19   22 1
  39   20   21 ar
  40   20   39 1
  41   21   40 1

#	End of record

