#	Name: ASD05740198
#	Creating user name:	WinNT
#	Creation time:	15. 06. 2019 21:03

#	Modifying user name:	WinNT
#	Modification time:	15. 06. 2019 21:03

#	Program:	/corina/corina34_cracker 3.40 0067  02.08.2006

@<TRIPOS>MOLECULE
ASD05740198
  65   70    0    0    0
SMALL
NO_CHARGES


@<TRIPOS>ATOM
   1 C1             0.8723    -0.2767    -0.0285 C.3     
   2 N2            -0.0716     0.3319     0.9192 N.3     
   3 C3            -1.3520    -0.2131     0.7714 C.ar    
   4 C4            -2.3925     0.2297     1.5777 C.ar    
   5 C5            -3.6558    -0.3080     1.4319 C.ar    
   6 C6            -3.8859    -1.2921     0.4794 C.ar    
   7 C7            -2.8454    -1.7352    -0.3265 C.ar    
   8 C8            -1.5836    -1.1928    -0.1853 C.ar    
   9 N9            -5.1674    -1.8379     0.3319 N.pl3   
  10 C10           -6.2820    -1.0431     0.5156 C.ar    
  11 N11           -6.1122     0.2593     0.7160 N.ar    
  12 N12           -7.4802    -1.6075     0.4800 N.ar    
  13 C13           -8.5725    -0.8745     0.6525 C.ar    
  14 C14           -8.4304     0.5132     0.8737 C.ar    
  15 C15           -7.1441     1.0639     0.8971 C.ar    
  16 N16           -9.8257    -1.4295     0.6206 N.am    
  17 C17          -10.9224    -0.6713     0.7970 C.2     
  18 C18          -10.8374     0.7178     1.0207 C.2     
  19 C19           -9.6251     1.3298     1.0648 C.2     
  20 C20           -9.9724    -2.8689     0.3906 C.3     
  21 O21          -12.0201    -1.1998     0.7621 O.2     
  22 C22            0.4065     0.1862     2.3012 C.3     
  23 C23            1.7721     0.8632     2.4397 C.3     
  24 N24            2.7161     0.2546     1.4920 N.3     
  25 C25            2.2380     0.4003     0.1100 C.3     
  26 C26           -9.8878    -3.5990     1.7062 C.ar    
  27 C27            4.0602     0.8267     1.6471 C.3     
  28 C28           -9.9658    -4.9846     1.7381 C.ar    
  29 C29           -9.7268    -2.8904     2.8811 C.ar    
  30 C30           -9.8870    -5.6538     2.9523 C.ar    
  31 C31           -9.7313    -4.9396     4.1239 C.ar    
  32 C32           -9.6486    -3.5595     4.0884 C.ar    
  33 N33          -10.1243    -5.7067     0.5471 N.pl3   
  34 N34          -10.1358    -5.1703    -0.7469 N.2     
  35 C35          -10.3051    -6.1523    -1.5954 C.2     
  36 C36          -10.4069    -7.3448    -0.8705 C.2     
  37 C37          -10.2873    -7.0451     0.4436 C.2     
  38 H38            0.9702    -1.3405     0.1881 H       
  39 H39            0.5026    -0.1449    -1.0454 H       
  40 H40           -2.2134     0.9945     2.3189 H       
  41 H41           -4.4649     0.0363     2.0589 H       
  42 H42           -3.0243    -2.5010    -1.0667 H       
  43 H43           -0.7744    -1.5375    -0.8120 H       
  44 H44           -5.2721    -2.7741     0.1006 H       
  45 H45           -6.9982     2.1209     1.0640 H       
  46 H46          -11.7384     1.2972     1.1578 H       
  47 H47           -9.5474     2.3933     1.2359 H       
  48 H48          -10.9390    -3.0661    -0.0729 H       
  49 H49           -9.1760    -3.2145    -0.2686 H       
  50 H50           -0.3029     0.6555     2.9828 H       
  51 H51            0.4990    -0.8723     2.5443 H       
  52 H52            1.6743     1.9269     2.2231 H       
  53 H53            2.1419     0.7313     3.4566 H       
  54 H54            2.9474    -0.0690    -0.5716 H       
  55 H55            2.1454     1.4588    -0.1331 H       
  56 H56            4.4173     0.6458     2.6609 H       
  57 H57            4.7388     0.3587     0.9339 H       
  58 H58            4.0218     1.9001     1.4615 H       
  59 H59           -9.6615    -1.8126     2.8564 H       
  60 H60           -9.9478    -6.7317     2.9803 H       
  61 H61           -9.6699    -5.4596     5.0685 H       
  62 H62           -9.5265    -3.0032     5.0060 H       
  63 H63          -10.3577    -6.0583    -2.6700 H       
  64 H64          -10.5516    -8.3309    -1.2867 H       
  65 H65          -10.3223    -7.7478     1.2630 H       
@<TRIPOS>BOND
   1    1    2 1
   2    1   25 1
   3    1   38 1
   4    1   39 1
   5    2    3 1
   6    2   22 1
   7    3    4 ar
   8    3    8 ar
   9    4    5 ar
  10    4   40 1
  11    5    6 ar
  12    5   41 1
  13    6    7 ar
  14    6    9 1
  15    7    8 ar
  16    7   42 1
  17    8   43 1
  18    9   10 1
  19    9   44 1
  20   10   11 ar
  21   10   12 ar
  22   11   15 ar
  23   12   13 ar
  24   13   14 ar
  25   13   16 1
  26   14   15 ar
  27   14   19 1
  28   15   45 1
  29   16   17 am
  30   16   20 1
  31   17   18 1
  32   17   21 2
  33   18   19 2
  34   18   46 1
  35   19   47 1
  36   20   26 1
  37   20   48 1
  38   20   49 1
  39   22   23 1
  40   22   50 1
  41   22   51 1
  42   23   24 1
  43   23   52 1
  44   23   53 1
  45   24   25 1
  46   24   27 1
  47   25   54 1
  48   25   55 1
  49   26   29 ar
  50   26   28 ar
  51   27   56 1
  52   27   57 1
  53   27   58 1
  54   28   30 ar
  55   28   33 1
  56   29   32 ar
  57   29   59 1
  58   30   31 ar
  59   30   60 1
  60   31   32 ar
  61   31   61 1
  62   32   62 1
  63   33   34 1
  64   33   37 1
  65   34   35 2
  66   35   36 1
  67   35   63 1
  68   36   37 2
  69   36   64 1
  70   37   65 1

#	End of record

