#	Name: ASD02408170
#	Creating user name:	WinNT
#	Creation time:	15. 06. 2019 20:21

#	Modifying user name:	WinNT
#	Modification time:	15. 06. 2019 20:21

#	Program:	/corina/corina34_cracker 3.40 0067  02.08.2006

@<TRIPOS>MOLECULE
ASD02408170
  47   49    0    0    0
SMALL
NO_CHARGES


@<TRIPOS>ATOM
   1 C1            -0.0972     1.2467    -0.0084 C.3     
   2 C2            -0.0178    -0.2561    -0.0867 C.ar    
   3 C3             0.0107    -1.0080     1.0726 C.ar    
   4 C4             0.0209    -0.8831    -1.3184 C.ar    
   5 C5             0.0937    -2.2614    -1.3902 C.ar    
   6 C6             0.1283    -3.0132    -0.2304 C.ar    
   7 C7             0.0836    -2.3868     1.0008 C.ar    
   8 C8            -0.0168    -0.0636    -2.5825 C.3     
   9 C9             1.3782     0.3881    -2.9302 C.2     
  10 N10            1.5637     1.1385    -4.0335 N.am    
  11 N11            2.3659     0.0437    -2.1493 N.2     
  12 C12            3.6258     0.4165    -2.4082 C.2     
  13 C13            3.8916     1.1962    -3.5460 C.2     
  14 C14            2.7994     1.5608    -4.3745 C.2     
  15 N15            4.6469     0.0411    -1.5701 N.pl3   
  16 C16            6.0290    -0.2638    -1.9826 C.3     
  17 O17            2.9735     2.2363    -5.3741 O.2     
  18 C18            0.2072    -4.5161    -0.3088 C.3     
  19 C19            6.5798    -1.1899    -0.8697 C.3     
  20 C20            5.9268    -0.5769     0.3973 C.3     
  21 C21            4.5443    -0.1172    -0.1120 C.3     
  22 C22            4.1672     1.2155     0.5379 C.3     
  23 O23            5.2179     2.1613     0.3295 O.3     
  24 C24            5.2251     1.6151    -3.8575 C.1     
  25 N25            6.2829     1.9474    -4.1045 N.1     
  26 H26            0.9099     1.6628     0.0202 H       
  27 H27           -0.6235     1.6289    -0.8831 H       
  28 H28           -0.6353     1.5356     0.8944 H       
  29 H29           -0.0237    -0.5185     2.0347 H       
  30 H30            0.1232    -2.7512    -2.3523 H       
  31 H31            0.1106    -2.9741     1.9067 H       
  32 H32           -0.4161    -0.6690    -3.3962 H       
  33 H33           -0.6539     0.8079    -2.4317 H       
  34 H34            0.8036     1.3768    -4.5870 H       
  35 H35            6.0332    -0.7803    -2.9425 H       
  36 H36            6.6182     0.6513    -2.0407 H       
  37 H37            1.2525    -4.8248    -0.3235 H       
  38 H38           -0.2881    -4.9517     0.5590 H       
  39 H39           -0.2857    -4.8589    -1.2185 H       
  40 H40            6.2519    -2.2186    -1.0195 H       
  41 H41            7.6670    -1.1320    -0.8157 H       
  42 H42            5.8217    -1.3289     1.1793 H       
  43 H43            6.5047     0.2751     0.7552 H       
  44 H44            3.7933    -0.8718     0.1221 H       
  45 H45            3.2468     1.5905     0.0903 H       
  46 H46            4.0174     1.0687     1.6075 H       
  47 H47            5.0465     3.0311     0.7158 H       
@<TRIPOS>BOND
   1    1    2 1
   2    1   26 1
   3    1   27 1
   4    1   28 1
   5    2    3 ar
   6    2    4 ar
   7    3    7 ar
   8    3   29 1
   9    4    5 ar
  10    4    8 1
  11    5    6 ar
  12    5   30 1
  13    6    7 ar
  14    6   18 1
  15    7   31 1
  16    8    9 1
  17    8   32 1
  18    8   33 1
  19    9   10 1
  20    9   11 2
  21   10   14 am
  22   10   34 1
  23   11   12 1
  24   12   13 2
  25   12   15 1
  26   13   14 1
  27   13   24 1
  28   14   17 2
  29   15   16 1
  30   15   21 1
  31   16   19 1
  32   16   35 1
  33   16   36 1
  34   18   37 1
  35   18   38 1
  36   18   39 1
  37   19   20 1
  38   19   40 1
  39   19   41 1
  40   20   21 1
  41   20   42 1
  42   20   43 1
  43   21   22 1
  44   21   44 1
  45   22   23 1
  46   22   45 1
  47   22   46 1
  48   23   47 1
  49   24   25 3

#	End of record

