#	Name: ASD03082101
#	Creating user name:	WinNT
#	Creation time:	15. 06. 2019 20:27

#	Modifying user name:	WinNT
#	Modification time:	15. 06. 2019 20:27

#	Program:	/corina/corina34_cracker 3.40 0067  02.08.2006

@<TRIPOS>MOLECULE
ASD03082101
  36   38    0    0    0
SMALL
NO_CHARGES


@<TRIPOS>ATOM
   1 C1            -0.0389     1.3993     0.1654 C.ar    
   2 C2            -0.0514     0.0274     0.4176 C.ar    
   3 C3            -1.2201    -0.6903     0.2672 C.ar    
   4 C4            -2.3846    -0.0574    -0.1340 C.ar    
   5 C5            -2.3912     1.2997    -0.3881 C.ar    
   6 C6            -1.2240     2.0422    -0.2360 C.ar    
   7 C7            -1.2265     3.4990    -0.5076 C.ar    
   8 C8            -0.3597     4.0350    -1.4593 C.ar    
   9 C9            -0.3670     5.3923    -1.7082 C.ar    
  10 C10           -1.2319     6.2207    -1.0158 C.ar    
  11 C11           -2.0941     5.6947    -0.0705 C.ar    
  12 C12           -2.0997     4.3383     0.1833 C.ar    
  13 C13            1.2082     2.1724     0.3245 C.2     
  14 N14            2.3671     1.5357     0.5858 N.am    
  15 O15            1.1902     3.3836     0.2198 O.2     
  16 C16            3.5642     2.2565     0.6394 C.ar    
  17 C17            3.5778     3.5458     1.1557 C.ar    
  18 C18            4.7618     4.2548     1.2077 C.ar    
  19 C19            5.9330     3.6825     0.7459 C.ar    
  20 C20            5.9228     2.3992     0.2308 C.ar    
  21 C21            4.7433     1.6825     0.1817 C.ar    
  22 H22            0.8534    -0.4727     0.7301 H       
  23 H23           -1.2266    -1.7524     0.4632 H       
  24 H24           -3.2936    -0.6292    -0.2492 H       
  25 H25           -3.3035     1.7860    -0.7006 H       
  26 H26            0.3162     3.3893    -2.0002 H       
  27 H27            0.3042     5.8087    -2.4448 H       
  28 H28           -1.2337     7.2824    -1.2137 H       
  29 H29           -2.7671     6.3463     0.4670 H       
  30 H30           -2.7735     3.9287     0.9212 H       
  31 H31            2.3707     0.5775     0.7367 H       
  32 H32            2.6633     3.9936     1.5159 H       
  33 H33            4.7731     5.2574     1.6091 H       
  34 H34            6.8575     4.2392     0.7873 H       
  35 H35            6.8390     1.9554    -0.1297 H       
  36 H36            4.7361     0.6802    -0.2203 H       
@<TRIPOS>BOND
   1    1    2 ar
   2    1   13 1
   3    1    6 ar
   4    2    3 ar
   5    2   22 1
   6    3    4 ar
   7    3   23 1
   8    4    5 ar
   9    4   24 1
  10    5    6 ar
  11    5   25 1
  12    6    7 1
  13    7    8 ar
  14    7   12 ar
  15    8    9 ar
  16    8   26 1
  17    9   10 ar
  18    9   27 1
  19   10   11 ar
  20   10   28 1
  21   11   12 ar
  22   11   29 1
  23   12   30 1
  24   13   14 am
  25   13   15 2
  26   14   16 1
  27   14   31 1
  28   16   17 ar
  29   16   21 ar
  30   17   18 ar
  31   17   32 1
  32   18   19 ar
  33   18   33 1
  34   19   20 ar
  35   19   34 1
  36   20   21 ar
  37   20   35 1
  38   21   36 1

#	End of record

