#	Name: ASD05430664
#	Creating user name:	WinNT
#	Creation time:	15. 06. 2019 21:00

#	Modifying user name:	WinNT
#	Modification time:	15. 06. 2019 21:00

#	Program:	/corina/corina34_cracker 3.40 0067  02.08.2006

@<TRIPOS>MOLECULE
ASD05430664
  21   21    0    0    0
SMALL
NO_CHARGES


@<TRIPOS>ATOM
   1 C1            -0.0167     1.3776     0.0096 C.ar    
   2 C2             0.0021    -0.0041     0.0020 C.ar    
   3 C3            -1.1877    -0.7128     0.0091 C.ar    
   4 C4            -2.4120     1.3469     0.0439 C.ar    
   5 C5            -1.2226     2.0532     0.0305 C.ar    
   6 C6             1.2783     2.1484     0.0014 C.3     
   7 C7            -2.3952    -0.0363     0.0243 C.ar    
   8 C8             1.3358     3.0357    -1.2437 C.3     
   9 C9             1.3596     3.0223     1.2546 C.3     
  10 Cl10          -3.9258     2.1963     0.0707 Cl      
  11 F11           -1.1698    -2.0636     0.0008 F       
  12 H12            0.9446    -0.5313    -0.0098 H       
  13 H13           -1.2360     3.1330     0.0462 H       
  14 H14            2.1160     1.4511    -0.0104 H       
  15 H15           -3.3236    -0.5881     0.0295 H       
  16 H16            2.2724     3.5931    -1.2497 H       
  17 H17            1.2778     2.4131    -2.1365 H       
  18 H18            0.4980     3.7329    -1.2320 H       
  19 H19            1.3187     2.3901     2.1417 H       
  20 H20            2.2963     3.5797     1.2487 H       
  21 H21            0.5219     3.7195     1.2664 H       
@<TRIPOS>BOND
   1    1    2 ar
   2    1    6 1
   3    1    5 ar
   4    2    3 ar
   5    2   12 1
   6    3    7 ar
   7    3   11 1
   8    4    5 ar
   9    4   10 1
  10    4    7 ar
  11    5   13 1
  12    6    8 1
  13    6    9 1
  14    6   14 1
  15    7   15 1
  16    8   16 1
  17    8   17 1
  18    8   18 1
  19    9   19 1
  20    9   20 1
  21    9   21 1

#	End of record

