#	Name: ASD08830206
#	Creating user name:	WinNT
#	Creation time:	15. 06. 2019 21:20

#	Modifying user name:	WinNT
#	Modification time:	15. 06. 2019 21:20

#	Program:	/corina/corina34_cracker 3.40 0067  02.08.2006

@<TRIPOS>MOLECULE
ASD08830206
  53   55    0    0    0
SMALL
NO_CHARGES


@<TRIPOS>ATOM
   1 C1            -0.0179     1.4658     0.0101 C.ar    
   2 C2             0.0021    -0.0041     0.0020 C.2     
   3 C3            -1.2926    -0.7753     0.0102 C.3     
   4 C4            -0.9927    -2.2755    -0.0007 C.3     
   5 N5            -2.2547    -3.0273     0.0073 N.3     
   6 O6             1.0605    -0.5961    -0.0113 O.2     
   7 C7            -1.2396     2.1498     0.0313 C.ar    
   8 C8            -2.0181    -4.4568    -0.2410 C.3     
   9 C9            -3.3490    -5.2097    -0.1649 C.3     
  10 O10           -4.2665    -4.6418    -1.1035 O.3     
  11 C11           -4.5205    -3.2506    -0.8906 C.3     
  12 C12           -3.2015    -2.4779    -0.9741 C.3     
  13 C13            1.1849     2.1828     0.0025 C.ar    
  14 C14            1.1653     3.5482     0.0105 C.ar    
  15 C15           -0.0553     4.2304     0.0267 C.ar    
  16 C16           -1.2570     3.5152     0.0393 C.ar    
  17 C17           -0.0753     5.7057     0.0358 C.2     
  18 C18            0.7068     6.5455     0.8183 C.2     
  19 N19           -0.8646     6.5220    -0.7297 N.pl3   
  20 C20           -0.5603     7.8040    -0.4045 C.2     
  21 N21            0.3674     7.8134     0.5094 N.2     
  22 C22           -1.8557     6.0905    -1.7186 C.3     
  23 C23           -3.2368     6.6127    -1.3178 C.3     
  24 C24           -1.4796     6.6462    -3.0936 C.3     
  25 C25            1.7192     6.1284     1.8028 C.2     
  26 N26            2.4082     7.0568     2.4956 N.am    
  27 O27            1.9337     4.9460     1.9909 O.2     
  28 H28           -1.8592    -0.5245     0.9070 H       
  29 H29           -1.8762    -0.5150    -0.8728 H       
  30 H30           -0.4261    -2.5263    -0.8975 H       
  31 H31           -0.4091    -2.5358     0.8824 H       
  32 H32           -2.1677     1.5976     0.0410 H       
  33 H33           -1.5824    -4.5869    -1.2316 H       
  34 H34           -1.3346    -4.8488     0.5123 H       
  35 H35           -3.1869    -6.2606    -0.4046 H       
  36 H36           -3.7584    -5.1242     0.8417 H       
  37 H37           -5.2057    -2.8846    -1.6552 H       
  38 H38           -4.9640    -3.1082     0.0948 H       
  39 H39           -3.3819    -1.4252    -0.7560 H       
  40 H40           -2.7847    -2.5763    -1.9764 H       
  41 H41            2.1277     1.6562    -0.0094 H       
  42 H42            2.0929     4.1015     0.0046 H       
  43 H43           -2.1992     4.0430     0.0519 H       
  44 H44           -1.0157     8.6817    -0.8389 H       
  45 H45           -1.8770     5.0015    -1.7603 H       
  46 H46           -3.2155     7.7017    -1.2761 H       
  47 H47           -3.9742     6.2916    -2.0535 H       
  48 H48           -3.5047     6.2168    -0.3382 H       
  49 H49           -2.2169     6.3252    -3.8293 H       
  50 H50           -1.4582     7.7352    -3.0519 H       
  51 H51           -0.4956     6.2742    -3.3791 H       
  52 H52            2.2371     7.9997     2.3456 H       
  53 H53            3.0751     6.7820     3.1441 H       
@<TRIPOS>BOND
   1    1    2 1
   2    1   13 ar
   3    1    7 ar
   4    2    3 1
   5    2    6 2
   6    3    4 1
   7    3   28 1
   8    3   29 1
   9    4    5 1
  10    4   30 1
  11    4   31 1
  12    5    8 1
  13    5   12 1
  14    7   16 ar
  15    7   32 1
  16    8    9 1
  17    8   33 1
  18    8   34 1
  19    9   10 1
  20    9   35 1
  21    9   36 1
  22   10   11 1
  23   11   12 1
  24   11   37 1
  25   11   38 1
  26   12   39 1
  27   12   40 1
  28   13   14 ar
  29   13   41 1
  30   14   15 ar
  31   14   42 1
  32   15   16 ar
  33   15   17 1
  34   16   43 1
  35   17   18 2
  36   17   19 1
  37   18   25 1
  38   18   21 1
  39   19   20 1
  40   19   22 1
  41   20   21 2
  42   20   44 1
  43   22   23 1
  44   22   24 1
  45   22   45 1
  46   23   46 1
  47   23   47 1
  48   23   48 1
  49   24   49 1
  50   24   50 1
  51   24   51 1
  52   25   26 am
  53   25   27 2
  54   26   52 1
  55   26   53 1

#	End of record

