#	Name: ASD05730149
#	Creating user name:	WinNT
#	Creation time:	15. 06. 2019 21:02

#	Modifying user name:	WinNT
#	Modification time:	15. 06. 2019 21:02

#	Program:	/corina/corina34_cracker 3.40 0067  02.08.2006

@<TRIPOS>MOLECULE
ASD05730149
  85   91    0    0    0
SMALL
NO_CHARGES


@<TRIPOS>ATOM
   1 C1             0.0253     1.5040     0.0641 C.3     
   2 C2             0.0337    -0.0029     0.0459 C.ar    
   3 C3             1.0697    -0.6796    -0.5714 C.ar    
   4 C4             1.0805    -2.0604    -0.5899 C.ar    
   5 C5             0.0495    -2.7696     0.0129 C.ar    
   6 C6            -0.9894    -2.0868     0.6326 C.ar    
   7 C7            -0.9916    -0.7059     0.6516 C.ar    
   8 N8             0.0571    -4.1675    -0.0043 N.pl3   
   9 C9             0.5610    -4.8424    -1.1003 C.ar    
  10 N10            0.6611    -6.1616    -1.0463 N.ar    
  11 C11            1.1402    -6.8448    -2.0798 C.ar    
  12 C12            1.5392    -6.1371    -3.2339 C.ar    
  13 C13            1.4133    -4.7403    -3.2416 C.ar    
  14 N14            0.9220    -4.1443    -2.1711 N.ar    
  15 N15            1.2480    -8.2119    -2.0327 N.am    
  16 C16            1.7354    -8.8992    -3.0836 C.2     
  17 C17            2.1582    -8.1953    -4.2960 C.2     
  18 C18            2.0533    -6.8329    -4.3531 C.2     
  19 C19            0.8294    -8.9312    -0.8270 C.3     
  20 O20            1.8252   -10.1126    -3.0249 O.2     
  21 C21            2.6952    -8.9536    -5.4526 C.2     
  22 C22           -1.2344     2.0167    -0.6394 C.3     
  23 C23           -0.6534    -9.1937    -0.8881 C.ar    
  24 C24           -1.2652     3.5457    -0.5638 C.3     
  25 C25            4.0467    -9.2814    -5.6783 C.2     
  26 C26            0.0313     1.9975     1.5127 C.3     
  27 N27            0.0018     3.4656     1.5311 N.3     
  28 C28           -1.2218     3.9800     0.9030 C.3     
  29 C29           -1.2994    -9.7635     0.1928 C.ar    
  30 C30            0.1461     3.9779     2.9003 C.3     
  31 C31           -2.6596   -10.0043     0.1367 C.ar    
  32 C32           -3.3736    -9.6748    -1.0000 C.ar    
  33 C33           -2.7275    -9.1039    -2.0808 C.ar    
  34 C34           -1.3684    -8.8592    -2.0231 C.ar    
  35 C35            1.9691    -9.4657    -6.4888 C.2     
  36 N36            2.8306   -10.0800    -7.3260 N.am    
  37 N37            4.1209    -9.9511    -6.7979 N.2     
  38 C38            5.2054    -8.9218    -4.7842 C.3     
  39 C39            0.4759    -9.3638    -6.6654 C.3     
  40 S40            2.4303   -10.8571    -8.7325 S.o2    
  41 C41            2.5280    -9.5683   -10.0053 C.3     
  42 O42            3.4656   -11.8139    -8.9111 O.2     
  43 O43            1.0828   -11.2636    -8.5369 O.2     
  44 C44            2.0959    -9.9427   -11.4244 C.3     
  45 C45            1.2111    -9.0323   -10.5705 C.3     
  46 C46           -0.5210   -10.1229     1.4321 C.3     
  47 F47           -1.3614   -10.7814     2.3361 F       
  48 F48            0.5430   -10.9633     1.0873 F       
  49 F49           -0.0218    -8.9574     2.0236 F       
  50 H50            0.9088     1.8791    -0.4524 H       
  51 H51            1.8711    -0.1276    -1.0399 H       
  52 H52            1.8896    -2.5883    -1.0728 H       
  53 H53           -1.7926    -2.6352     1.1022 H       
  54 H54           -1.7990    -0.1743     1.1332 H       
  55 H55           -0.2913    -4.6638     0.7528 H       
  56 H56            1.7085    -4.1648    -4.1065 H       
  57 H57            2.3597    -6.2962    -5.2388 H       
  58 H58            1.3639    -9.8792    -0.7654 H       
  59 H59            1.0558    -8.3286     0.0526 H       
  60 H60           -1.2214     1.7038    -1.6835 H       
  61 H61           -2.1177     1.6098    -0.1472 H       
  62 H62           -0.4020     3.9535    -1.0898 H       
  63 H63           -2.1810     3.9145    -1.0256 H       
  64 H64           -0.8453     1.6101     2.0320 H       
  65 H65            0.9340     1.6461     2.0124 H       
  66 H66           -1.2292     5.0685     0.9598 H       
  67 H67           -2.0925     3.5834     1.4251 H       
  68 H68            1.0963     3.6422     3.3157 H       
  69 H69            0.1209     5.0675     2.8851 H       
  70 H70           -0.6720     3.6042     3.5162 H       
  71 H71           -3.1643   -10.4503     0.9810 H       
  72 H72           -4.4360    -9.8635    -1.0440 H       
  73 H73           -3.2853    -8.8467    -2.9691 H       
  74 H74           -0.8637    -8.4132    -2.8674 H       
  75 H75            5.3580    -9.7138    -4.0511 H       
  76 H76            6.1065    -8.8055    -5.3864 H       
  77 H77            4.9897    -7.9860    -4.2686 H       
  78 H78            0.2373    -8.4607    -7.2272 H       
  79 H79            0.1141   -10.2363    -7.2093 H       
  80 H80           -0.0035    -9.3207    -5.6875 H       
  81 H81            3.3541    -8.8650    -9.8998 H       
  82 H82            2.6374    -9.4855   -12.2526 H       
  83 H83            1.7528   -10.9635   -11.5933 H       
  84 H84            0.2860    -9.4540   -10.1775 H       
  85 H85            1.1706    -7.9761   -10.8368 H       
@<TRIPOS>BOND
   1    1    2 1
   2    1   22 1
   3    1   26 1
   4    1   50 1
   5    2    3 ar
   6    2    7 ar
   7    3    4 ar
   8    3   51 1
   9    4    5 ar
  10    4   52 1
  11    5    6 ar
  12    5    8 1
  13    6    7 ar
  14    6   53 1
  15    7   54 1
  16    8    9 1
  17    8   55 1
  18    9   10 ar
  19    9   14 ar
  20   10   11 ar
  21   11   12 ar
  22   11   15 1
  23   12   13 ar
  24   12   18 1
  25   13   14 ar
  26   13   56 1
  27   15   16 am
  28   15   19 1
  29   16   17 1
  30   16   20 2
  31   17   18 2
  32   17   21 1
  33   18   57 1
  34   19   23 1
  35   19   58 1
  36   19   59 1
  37   21   25 1
  38   21   35 2
  39   22   24 1
  40   22   60 1
  41   22   61 1
  42   23   29 ar
  43   23   34 ar
  44   24   28 1
  45   24   62 1
  46   24   63 1
  47   25   38 1
  48   25   37 2
  49   26   27 1
  50   26   64 1
  51   26   65 1
  52   27   28 1
  53   27   30 1
  54   28   66 1
  55   28   67 1
  56   29   31 ar
  57   29   46 1
  58   30   68 1
  59   30   69 1
  60   30   70 1
  61   31   32 ar
  62   31   71 1
  63   32   33 ar
  64   32   72 1
  65   33   34 ar
  66   33   73 1
  67   34   74 1
  68   35   36 1
  69   35   39 1
  70   36   37 1
  71   36   40 am
  72   38   75 1
  73   38   76 1
  74   38   77 1
  75   39   78 1
  76   39   79 1
  77   39   80 1
  78   40   41 1
  79   40   42 2
  80   40   43 2
  81   41   44 1
  82   41   45 1
  83   41   81 1
  84   44   45 1
  85   44   82 1
  86   44   83 1
  87   45   84 1
  88   45   85 1
  89   46   47 1
  90   46   48 1
  91   46   49 1

#	End of record

