#	Name: ASD03930205
#	Creating user name:	WinNT
#	Creation time:	15. 06. 2019 20:47

#	Modifying user name:	WinNT
#	Modification time:	15. 06. 2019 20:47

#	Program:	/corina/corina34_cracker 3.40 0067  02.08.2006

@<TRIPOS>MOLECULE
ASD03930205
  41   43    0    0    0
SMALL
NO_CHARGES


@<TRIPOS>ATOM
   1 C1            -0.0187     1.5274     0.0104 C.3     
   2 C2             0.0021    -0.0041     0.0020 C.3     
   3 C3             0.4821    -0.4927    -1.3664 C.3     
   4 C4             1.7731     0.2289    -1.7188 C.2     
   5 C5             2.1824     1.3492    -1.1123 C.2     
   6 C6             1.4218     2.0462    -0.0005 C.3     
   7 C7             2.6987    -0.2138    -2.7456 C.2     
   8 C8             3.7891     0.5994    -2.8795 C.2     
   9 S9             3.7121     1.8959    -1.7788 S.3     
  10 C10            2.4847    -1.4144    -3.5593 C.2     
  11 N11            2.9591    -2.6048    -3.1417 N.am    
  12 O12            1.8786    -1.3362    -4.6119 O.2     
  13 N13            4.8173     0.3960    -3.7869 N.am    
  14 C14            5.8508     1.2595    -3.8390 C.2     
  15 N15            6.8503     1.0618    -4.7212 N.am    
  16 O16            5.8814     2.2161    -3.0907 O.2     
  17 N17            6.9451     0.0078    -5.6393 N.2     
  18 C18            8.0508     0.1554    -6.3199 C.2     
  19 C19            8.7023     1.3086    -5.8615 C.2     
  20 C20            7.9461     1.8540    -4.8838 C.2     
  21 C21           10.0126     1.8488    -6.3737 C.3     
  22 O22           10.3496     3.0389    -5.6580 O.3     
  23 F23            7.5763    -1.7376    -7.6708 F       
  24 F24            8.7761    -0.0157    -8.5734 F       
  25 C25            8.5424    -0.7595    -7.4118 C.3     
  26 F26            9.7312    -1.3745    -7.0048 F       
  27 H27           -0.5436     1.8899    -0.8734 H       
  28 H28           -0.5265     1.8803     0.9080 H       
  29 H29            0.6807    -0.3634     0.7757 H       
  30 H30           -1.0021    -0.3830     0.1924 H       
  31 H31            0.6628    -1.5670    -1.3281 H       
  32 H32           -0.2757    -0.2743    -2.1189 H       
  33 H33            1.4215     3.1219    -0.1765 H       
  34 H34            1.8953     1.8305     0.9573 H       
  35 H35            3.4422    -2.6672    -2.3028 H       
  36 H36            2.8176    -3.3992    -3.6800 H       
  37 H37            4.7928    -0.3678    -4.3844 H       
  38 H38            8.1731     2.7512    -4.3270 H       
  39 H39           10.7946     1.1036    -6.2281 H       
  40 H40            9.9213     2.0770    -7.4356 H       
  41 H41           11.1834     3.4422    -5.9359 H       
@<TRIPOS>BOND
   1    1    2 1
   2    1    6 1
   3    1   27 1
   4    1   28 1
   5    2    3 1
   6    2   29 1
   7    2   30 1
   8    3    4 1
   9    3   31 1
  10    3   32 1
  11    4    5 2
  12    4    7 1
  13    5    6 1
  14    5    9 1
  15    6   33 1
  16    6   34 1
  17    7    8 2
  18    7   10 1
  19    8    9 1
  20    8   13 1
  21   10   11 am
  22   10   12 2
  23   11   35 1
  24   11   36 1
  25   13   14 am
  26   13   37 1
  27   14   15 am
  28   14   16 2
  29   15   17 1
  30   15   20 1
  31   17   18 2
  32   18   19 1
  33   18   25 1
  34   19   20 2
  35   19   21 1
  36   20   38 1
  37   21   22 1
  38   21   39 1
  39   21   40 1
  40   22   41 1
  41   23   25 1
  42   24   25 1
  43   25   26 1

#	End of record

