#	Name: ASD05213015
#	Creating user name:	WinNT
#	Creation time:	15. 06. 2019 20:57

#	Modifying user name:	WinNT
#	Modification time:	15. 06. 2019 20:57

#	Program:	/corina/corina34_cracker 3.40 0067  02.08.2006

@<TRIPOS>MOLECULE
ASD05213015
  22   24    0    0    0
SMALL
NO_CHARGES


@<TRIPOS>ATOM
   1 S1            -0.0218     1.7577     0.0117 S.3     
   2 C2             0.0021    -0.0041     0.0020 C.2     
   3 S3            -1.3858    -1.0024     0.0099 S.3     
   4 C4            -0.3659    -2.4387    -0.0087 C.2     
   5 C5             0.9078    -2.0421    -0.0190 C.2     
   6 N6             1.0751    -0.7325    -0.0178 N.2     
   7 C7             1.7090     2.0873    -0.0030 C.2     
   8 S8             2.4260     3.6929    -0.0013 S.3     
   9 C9             4.0383     2.9857    -0.0205 C.ar    
  10 C10            3.9129     1.5917    -0.0268 C.ar    
  11 N11            2.6320     1.1841    -0.0111 N.2     
  12 C12            5.3019     3.5706    -0.0298 C.ar    
  13 C13            6.4126     2.7450    -0.0453 C.ar    
  14 C14            6.2291     1.3725    -0.0509 C.ar    
  15 N15            5.0301     0.8416    -0.0410 N.ar    
  16 N16           -0.8400    -3.8425    -0.0118 N.pl3   
  17 O17           -0.0356    -4.7569    -0.0248 O.2     
  18 O18           -2.0342    -4.0820    -0.0014 O.2     
  19 H19            1.7351    -2.7362    -0.0313 H       
  20 H20            5.4128     4.6449    -0.0255 H       
  21 H21            7.4075     3.1650    -0.0532 H       
  22 H22            7.0931     0.7246    -0.0633 H       
@<TRIPOS>BOND
   1    1    2 1
   2    1    7 1
   3    2    3 1
   4    2    6 2
   5    3    4 1
   6    4    5 2
   7    4   16 1
   8    5    6 1
   9    5   19 1
  10    7    8 1
  11    7   11 2
  12    8    9 1
  13    9   10 ar
  14    9   12 ar
  15   10   11 1
  16   10   15 ar
  17   12   13 ar
  18   12   20 1
  19   13   14 ar
  20   13   21 1
  21   14   15 ar
  22   14   22 1
  23   16   17 2
  24   16   18 2

#	End of record

