#	Name: ASD01140182
#	Creating user name:	WinNT
#	Creation time:	15. 06. 2019 19:00

#	Modifying user name:	WinNT
#	Modification time:	15. 06. 2019 19:00

#	Program:	/corina/corina34_cracker 3.40 0067  02.08.2006

@<TRIPOS>MOLECULE
ASD01140182
  50   53    0    0    0
SMALL
NO_CHARGES


@<TRIPOS>ATOM
   1 C1            -0.3109    -1.2991    -0.4405 C.1     
   2 C2            -0.2565    -0.1291    -0.3608 C.1     
   3 C3            -0.1902     1.2981    -0.2637 C.ar    
   4 C4             1.0492     1.9429    -0.2763 C.ar    
   5 C5             1.1074     3.3158    -0.1943 C.ar    
   6 C6            -0.0583     4.0710    -0.0984 C.ar    
   7 C7            -1.3039     3.4392    -0.0618 C.ar    
   8 C8            -1.3586     2.0430    -0.1626 C.ar    
   9 C9            -2.5693     4.1637     0.1034 C.2     
  10 N10           -2.9242     5.2693    -0.4523 N.2     
  11 C11           -2.0516     5.9723    -1.3998 C.3     
  12 C12           -0.7852     6.3390    -0.6706 C.2     
  13 N13            0.0625     5.4633    -0.0747 N.pl3   
  14 C14            1.0503     6.1871     0.5189 C.2     
  15 N15            0.8542     7.4507     0.2692 N.2     
  16 C16           -0.8433     8.8481    -0.9785 C.2     
  17 O17           -1.8646     8.8356    -1.6376 O.2     
  18 O18           -0.2301    10.0176    -0.7079 O.3     
  19 C19           -0.8455    11.2222    -1.2356 C.3     
  20 C20           -0.0136    12.4401    -0.8289 C.3     
  21 C21           -0.5905    13.6948    -1.4874 C.3     
  22 C22           -0.0520    12.5990     0.6924 C.3     
  23 C23           -3.5568     3.5489     1.0191 C.ar    
  24 C24           -4.7719     3.0758     0.5238 C.ar    
  25 C25           -5.6882     2.5039     1.3819 C.ar    
  26 C26           -5.4056     2.3986     2.7325 C.ar    
  27 C27           -4.2037     2.8649     3.2323 C.ar    
  28 C28           -3.2735     3.4347     2.3828 C.ar    
  29 F29           -2.0967     3.8847     2.8703 F       
  30 C30           -0.2764     7.5864    -0.4760 C.2     
  31 H31           -0.3595    -2.3456    -0.5117 H       
  32 H32            1.9592     1.3658    -0.3498 H       
  33 H33            2.0666     3.8119    -0.2040 H       
  34 H34           -2.3153     1.5419    -0.1572 H       
  35 H35           -1.8179     5.3197    -2.2410 H       
  36 H36           -2.5464     6.8751    -1.7579 H       
  37 H37            1.8636     5.7806     1.1016 H       
  38 H38           -0.8915    11.1603    -2.3229 H       
  39 H39           -1.8541    11.3207    -0.8343 H       
  40 H40            1.0175    12.3007    -1.1536 H       
  41 H41           -1.6216    13.8342    -1.1627 H       
  42 H42            0.0022    14.5625    -1.1976 H       
  43 H43           -0.5631    13.5816    -2.5712 H       
  44 H44           -1.0832    12.7384     1.0172 H       
  45 H45            0.3590    11.7051     1.1616 H       
  46 H46            0.5406    13.4667     0.9822 H       
  47 H47           -4.9951     3.1574    -0.5297 H       
  48 H48           -6.6291     2.1375     0.9986 H       
  49 H49           -6.1274     1.9505     3.3993 H       
  50 H50           -3.9893     2.7797     4.2874 H       
@<TRIPOS>BOND
   1    1    2 3
   2    1   31 1
   3    2    3 1
   4    3    4 ar
   5    3    8 ar
   6    4    5 ar
   7    4   32 1
   8    5    6 ar
   9    5   33 1
  10    6    7 ar
  11    6   13 1
  12    7    8 ar
  13    7    9 1
  14    8   34 1
  15    9   10 2
  16    9   23 1
  17   10   11 1
  18   11   12 1
  19   11   35 1
  20   11   36 1
  21   12   13 1
  22   12   30 2
  23   13   14 1
  24   14   15 2
  25   14   37 1
  26   15   30 1
  27   16   17 2
  28   16   18 1
  29   16   30 1
  30   18   19 1
  31   19   20 1
  32   19   38 1
  33   19   39 1
  34   20   21 1
  35   20   22 1
  36   20   40 1
  37   21   41 1
  38   21   42 1
  39   21   43 1
  40   22   44 1
  41   22   45 1
  42   22   46 1
  43   23   24 ar
  44   23   28 ar
  45   24   25 ar
  46   24   47 1
  47   25   26 ar
  48   25   48 1
  49   26   27 ar
  50   26   49 1
  51   27   28 ar
  52   27   50 1
  53   28   29 1

#	End of record

