#	Name: ASD00071091
#	Creating user name:	WinNT
#	Creation time:	15. 06. 2019 18:30

#	Modifying user name:	WinNT
#	Modification time:	15. 06. 2019 18:30

#	Program:	/corina/corina34_cracker 3.40 0067  02.08.2006

@<TRIPOS>MOLECULE
ASD00071091
  49   51    0    0    0
SMALL
NO_CHARGES


@<TRIPOS>ATOM
   1 N1            -0.0157     1.3065     0.0092 N.2     
   2 C2             0.0021    -0.0041     0.0020 C.2     
   3 N3             1.1984    -0.6822     0.0317 N.pl3   
   4 C4             2.3732    -0.0684    -0.6058 C.3     
   5 C5             2.3601     1.4066    -0.2838 C.ar    
   6 C6             3.5306     2.1320    -0.2741 C.ar    
   7 C7             3.5023     3.4864     0.0113 C.ar    
   8 C8             2.3010     4.1157     0.2867 C.ar    
   9 C9             1.1230     3.3980     0.2846 C.ar    
  10 C10            1.1441     2.0306     0.0020 C.ar    
  11 C11            1.3004    -1.9893     0.6854 C.3     
  12 C12            1.0037    -3.0761    -0.3155 C.ar    
  13 C13            1.9845    -3.4848    -1.2078 C.ar    
  14 C14            1.7083    -4.4854    -2.1279 C.ar    
  15 C15            0.4578    -5.0725    -2.1538 C.ar    
  16 C16           -0.5178    -4.6632    -1.2640 C.ar    
  17 C17           -0.2430    -3.6701    -0.3416 C.ar    
  18 O18            3.2135    -2.9055    -1.1807 O.3     
  19 C19            4.1738    -3.3764    -2.1285 C.3     
  20 N20           -1.1783    -0.7029    -0.0348 N.pl3   
  21 C21           -2.4545     0.0160    -0.0660 C.3     
  22 C22           -3.6061    -0.9906    -0.1039 C.3     
  23 C23           -4.9388    -0.2399    -0.1364 C.3     
  24 C24           -6.0904    -1.2465    -0.1743 C.3     
  25 H25            3.2838    -0.5228    -0.2154 H       
  26 H26            2.3231    -0.2105    -1.6853 H       
  27 H27            4.4702     1.6446    -0.4885 H       
  28 H28            4.4211     4.0539     0.0193 H       
  29 H29            2.2857     5.1734     0.5045 H       
  30 H30            0.1873     3.8920     0.5009 H       
  31 H31            2.3088    -2.1217     1.0774 H       
  32 H32            0.5825    -2.0432     1.5038 H       
  33 H33            2.4699    -4.8051    -2.8238 H       
  34 H34            0.2422    -5.8516    -2.8700 H       
  35 H35           -1.4949    -5.1228    -1.2863 H       
  36 H36           -1.0053    -3.3554     0.3556 H       
  37 H37            3.7964    -3.2156    -3.1384 H       
  38 H38            5.1091    -2.8319    -1.9991 H       
  39 H39            4.3481    -4.4407    -1.9709 H       
  40 H40           -1.1678    -1.6728    -0.0402 H       
  41 H41           -2.5437     0.6368     0.8255 H       
  42 H42           -2.4943     0.6472    -0.9537 H       
  43 H43           -3.5169    -1.6114    -0.9954 H       
  44 H44           -3.5662    -1.6218     0.7839 H       
  45 H45           -5.0280     0.3809     0.7551 H       
  46 H46           -4.9787     0.3914    -1.0241 H       
  47 H47           -7.0399    -0.7116    -0.1974 H       
  48 H48           -6.0012    -1.8672    -1.0658 H       
  49 H49           -6.0506    -1.8777     0.7135 H       
@<TRIPOS>BOND
   1    1    2 2
   2    1   10 1
   3    2    3 1
   4    2   20 1
   5    3    4 1
   6    3   11 1
   7    4    5 1
   8    4   25 1
   9    4   26 1
  10    5    6 ar
  11    5   10 ar
  12    6    7 ar
  13    6   27 1
  14    7    8 ar
  15    7   28 1
  16    8    9 ar
  17    8   29 1
  18    9   10 ar
  19    9   30 1
  20   11   12 1
  21   11   31 1
  22   11   32 1
  23   12   13 ar
  24   12   17 ar
  25   13   14 ar
  26   13   18 1
  27   14   15 ar
  28   14   33 1
  29   15   16 ar
  30   15   34 1
  31   16   17 ar
  32   16   35 1
  33   17   36 1
  34   18   19 1
  35   19   37 1
  36   19   38 1
  37   19   39 1
  38   20   21 1
  39   20   40 1
  40   21   22 1
  41   21   41 1
  42   21   42 1
  43   22   23 1
  44   22   43 1
  45   22   44 1
  46   23   24 1
  47   23   45 1
  48   23   46 1
  49   24   47 1
  50   24   48 1
  51   24   49 1

#	End of record

