#	Name: ASD01914306
#	Creating user name:	WinNT
#	Creation time:	15. 06. 2019 20:03

#	Modifying user name:	WinNT
#	Modification time:	15. 06. 2019 20:03

#	Program:	/corina/corina34_cracker 3.40 0067  02.08.2006

@<TRIPOS>MOLECULE
ASD01914306
  36   38    0    0    0
SMALL
NO_CHARGES


@<TRIPOS>ATOM
   1 C1            -0.0184     1.5028     0.0103 C.2     
   2 C2             0.0021    -0.0041     0.0020 C.3     
   3 C3            -2.1352    -0.7834    -1.0696 C.2     
   4 N4            -3.2985    -1.2160    -0.6638 N.2     
   5 C5            -3.3206    -1.2355     0.6781 C.2     
   6 C6            -2.1252    -0.7982     1.1214 C.2     
   7 N7            -1.3723    -0.5112     0.0124 N.pl3   
   8 Br8           -1.5901    -0.6151     2.9258 Br      
   9 Br9           -4.7745    -1.7803     1.7577 Br      
  10 Br10          -1.6030    -0.5795    -2.8727 Br      
  11 N11            1.1395     2.1925     0.0030 N.am    
  12 C12            1.1422     3.6632     0.0108 C.3     
  13 C13            2.0647     4.1423     1.1368 C.3     
  14 N14            3.3860     3.5196     0.9813 N.3     
  15 C15            3.3056     2.0588     1.1137 C.3     
  16 C16            2.4340     1.4943    -0.0070 C.3     
  17 C17            4.2934     4.0500     1.8818 C.ar    
  18 N18            5.5405     3.6027     1.8827 N.ar    
  19 C19            6.4325     4.0883     2.7302 C.ar    
  20 C20            6.0485     5.0760     3.6236 C.ar    
  21 C21            4.7361     5.5210     3.5956 C.ar    
  22 N22            3.8956     4.9969     2.7189 N.ar    
  23 O23           -1.0768     2.0948     0.0185 O.2     
  24 H24            0.5123    -0.3556    -0.8948 H       
  25 H25            0.5293    -0.3651     0.8851 H       
  26 H26            1.5096     4.0339    -0.9462 H       
  27 H27            0.1308     4.0303     0.1850 H       
  28 H28            2.1655     5.2265     1.0879 H       
  29 H29            1.6402     3.8592     2.1000 H       
  30 H30            4.3064     1.6320     1.0480 H       
  31 H31            2.8639     1.8047     2.0772 H       
  32 H32            2.2762     0.4281     0.1553 H       
  33 H33            2.9279     1.6524    -0.9658 H       
  34 H34            7.4475     3.7194     2.7264 H       
  35 H35            6.7564     5.4897     4.3265 H       
  36 H36            4.4048     6.2892     4.2786 H       
@<TRIPOS>BOND
   1    1    2 1
   2    1   11 am
   3    1   23 2
   4    2    7 1
   5    2   24 1
   6    2   25 1
   7    3    4 2
   8    3    7 1
   9    3   10 1
  10    4    5 1
  11    5    6 2
  12    5    9 1
  13    6    7 1
  14    6    8 1
  15   11   12 1
  16   11   16 1
  17   12   13 1
  18   12   26 1
  19   12   27 1
  20   13   14 1
  21   13   28 1
  22   13   29 1
  23   14   15 1
  24   14   17 1
  25   15   16 1
  26   15   30 1
  27   15   31 1
  28   16   32 1
  29   16   33 1
  30   17   18 ar
  31   17   22 ar
  32   18   19 ar
  33   19   20 ar
  34   19   34 1
  35   20   21 ar
  36   20   35 1
  37   21   22 ar
  38   21   36 1

#	End of record

