#	Name: ASD02408140
#	Creating user name:	WinNT
#	Creation time:	15. 06. 2019 20:21

#	Modifying user name:	WinNT
#	Modification time:	15. 06. 2019 20:21

#	Program:	/corina/corina34_cracker 3.40 0067  02.08.2006

@<TRIPOS>MOLECULE
ASD02408140
  51   54    0    0    0
SMALL
NO_CHARGES


@<TRIPOS>ATOM
   1 C1            -1.0477     1.7220     0.2308 C.ar    
   2 C2            -1.2959     0.3556     0.2198 C.ar    
   3 C3             0.2517     2.1714     0.0078 C.ar    
   4 C4             1.2705     1.2686    -0.2143 C.ar    
   5 C5             1.0119    -0.0899    -0.2176 C.ar    
   6 C6            -0.2764    -0.5444     0.0012 C.ar    
   7 C7             0.5453     3.6496     0.0086 C.3     
   8 C8             0.7805     4.1142     1.4228 C.2     
   9 N9             1.0608     5.4132     1.6433 N.am    
  10 N10            0.7005     3.2455     2.3939 N.2     
  11 C11            0.8993     3.6012     3.6695 C.2     
  12 C12            1.2008     4.9397     3.9706 C.2     
  13 C13            1.2765     5.8639     2.8971 C.2     
  14 N14            0.8088     2.6676     4.6726 N.pl3   
  15 C15            0.1700     3.0033     5.9524 C.3     
  16 O16            1.5347     7.0374     3.1018 O.2     
  17 C17           -0.9191     1.9668     6.2466 C.3     
  18 C18           -0.3093     0.5640     6.1974 C.3     
  19 C19            0.2464     0.2964     4.7968 C.3     
  20 C20            1.3437     1.3121     4.4841 C.3     
  21 C21            0.8221     0.4638     7.2225 C.3     
  22 C22           -1.3866    -0.4718     6.5249 C.3     
  23 C23           -2.7796     0.1714     0.4736 C.3     
  24 C24           -3.3268     1.5960     0.2194 C.3     
  25 O25           -2.1841     2.4275     0.4839 O.3     
  26 C26            1.4202     5.3599     5.3219 C.1     
  27 N27            1.5942     5.6933     6.3939 N.1     
  28 H28            2.2755     1.6245    -0.3868 H       
  29 H29            1.8128    -0.7936    -0.3903 H       
  30 H30           -0.4827    -1.6045    -0.0002 H       
  31 H31            1.4352     3.8435    -0.5902 H       
  32 H32           -0.3022     4.1886    -0.4147 H       
  33 H33            1.1082     6.0292     0.8955 H       
  34 H34            0.9148     2.9867     6.7480 H       
  35 H35           -0.2773     3.9952     5.8884 H       
  36 H36           -1.3355     2.1480     7.2376 H       
  37 H37           -1.7087     2.0467     5.4995 H       
  38 H38            0.6596    -0.7115     4.7558 H       
  39 H39           -0.5542     0.3919     4.0634 H       
  40 H40            1.6731     1.1882     3.4525 H       
  41 H41            2.1856     1.1602     5.1595 H       
  42 H42            0.4263     0.6532     8.2202 H       
  43 H43            1.2566    -0.5353     7.1876 H       
  44 H44            1.5896     1.2020     6.9899 H       
  45 H45           -2.1932    -0.4003     5.7952 H       
  46 H46           -0.9525    -1.4711     6.4899 H       
  47 H47           -1.7817    -0.2821     7.5229 H       
  48 H48           -3.2094    -0.5422    -0.2294 H       
  49 H49           -2.9632    -0.1387     1.5023 H       
  50 H50           -3.6530     1.7055    -0.8149 H       
  51 H51           -4.1396     1.8260     0.9083 H       
@<TRIPOS>BOND
   1    1    2 ar
   2    1    3 ar
   3    1   25 1
   4    2   23 1
   5    2    6 ar
   6    3    4 ar
   7    3    7 1
   8    4    5 ar
   9    4   28 1
  10    5    6 ar
  11    5   29 1
  12    6   30 1
  13    7    8 1
  14    7   31 1
  15    7   32 1
  16    8    9 1
  17    8   10 2
  18    9   13 am
  19    9   33 1
  20   10   11 1
  21   11   12 2
  22   11   14 1
  23   12   13 1
  24   12   26 1
  25   13   16 2
  26   14   15 1
  27   14   20 1
  28   15   17 1
  29   15   34 1
  30   15   35 1
  31   17   18 1
  32   17   36 1
  33   17   37 1
  34   18   19 1
  35   18   21 1
  36   18   22 1
  37   19   20 1
  38   19   38 1
  39   19   39 1
  40   20   40 1
  41   20   41 1
  42   21   42 1
  43   21   43 1
  44   21   44 1
  45   22   45 1
  46   22   46 1
  47   22   47 1
  48   23   24 1
  49   23   48 1
  50   23   49 1
  51   24   25 1
  52   24   50 1
  53   24   51 1
  54   26   27 3

#	End of record

