#	Name: ASD01141035
#	Creating user name:	WinNT
#	Creation time:	15. 06. 2019 19:01

#	Modifying user name:	WinNT
#	Modification time:	15. 06. 2019 19:01

#	Program:	/corina/corina34_cracker 3.40 0067  02.08.2006

@<TRIPOS>MOLECULE
ASD01141035
  51   52    0    0    0
SMALL
NO_CHARGES


@<TRIPOS>ATOM
   1 C1             0.3918     1.4518     1.2459 C.ar    
   2 C2             0.5022     0.0961     1.5332 C.ar    
   3 C3             1.4978     2.2814     1.3911 C.ar    
   4 O4            -0.7940     1.9642     0.8184 O.3     
   5 C5             1.7141    -0.4230     1.9631 C.ar    
   6 C6             2.7059     1.7539     1.8216 C.ar    
   7 O7             1.3953     3.6080     1.1111 O.3     
   8 C8            -1.6409     2.4081     1.7603 C.2     
   9 C9             2.8112     0.4055     2.1065 C.ar    
  10 C10           -2.9732     2.9890     1.3622 C.3     
  11 O11           -1.3341     2.3417     2.9310 O.2     
  12 N12           -2.7884     3.9082     0.2313 N.3     
  13 C13           -3.9200     1.8594     0.9518 C.3     
  14 C14            2.5722     4.4001     1.2828 C.3     
  15 O15           -0.5766    -0.7196     1.3932 O.3     
  16 C16           -0.3901    -2.1014     1.7062 C.3     
  17 C17           -4.0094     4.6880    -0.0187 C.3     
  18 C18           -3.7543     5.6724    -1.1632 C.3     
  19 O19           -3.3270     4.9494    -2.3208 O.3     
  20 C20           -2.1400     4.1793    -2.1130 C.3     
  21 C21           -2.3787     3.1798    -0.9782 C.3     
  22 C22            4.1259    -0.1630     2.5750 C.3     
  23 C23           -2.6929     4.9608     2.8708 C.3     
  24 C24           -3.5716     3.7510     2.5463 C.3     
  25 H25            1.8008    -1.4761     2.1864 H       
  26 H26            3.5656     2.3977     1.9347 H       
  27 H27           -4.0571     1.1773     1.7909 H       
  28 H28           -4.8837     2.2795     0.6639 H       
  29 H29           -3.4937     1.3165     0.1082 H       
  30 H30            2.3532     5.4365     1.0260 H       
  31 H31            2.8993     4.3444     2.3211 H       
  32 H32            3.3617     4.0236     0.6324 H       
  33 H33            0.3797    -2.5201     1.0579 H       
  34 H34           -0.0816    -2.1997     2.7470 H       
  35 H35           -1.3261    -2.6383     1.5524 H       
  36 H36           -4.8217     4.0146    -0.2921 H       
  37 H37           -4.2800     5.2391     0.8819 H       
  38 H38           -4.6733     6.2127    -1.3902 H       
  39 H39           -2.9787     6.3796    -0.8690 H       
  40 H40           -1.8915     3.6398    -3.0270 H       
  41 H41           -1.3175     4.8430    -1.8464 H       
  42 H42           -1.4591     2.6300    -0.7780 H       
  43 H43           -3.1650     2.4823    -1.2669 H       
  44 H44            4.7101    -0.4852     1.7130 H       
  45 H45            4.6775     0.6009     3.1228 H       
  46 H46            3.9409    -1.0160     3.2279 H       
  47 H47           -1.6688     4.6301     3.0436 H       
  48 H48           -2.7128     5.6592     2.0341 H       
  49 H49           -3.0711     5.4550     3.7657 H       
  50 H50           -4.5757     4.0894     2.2906 H       
  51 H51           -3.6198     3.0937     3.4145 H       
@<TRIPOS>BOND
   1    1    2 ar
   2    1    3 ar
   3    1    4 1
   4    2    5 ar
   5    2   15 1
   6    3    6 ar
   7    3    7 1
   8    4    8 1
   9    5    9 ar
  10    5   25 1
  11    6    9 ar
  12    6   26 1
  13    7   14 1
  14    8   10 1
  15    8   11 2
  16    9   22 1
  17   10   13 1
  18   10   24 1
  19   10   12 1
  20   12   17 1
  21   12   21 1
  22   13   27 1
  23   13   28 1
  24   13   29 1
  25   14   30 1
  26   14   31 1
  27   14   32 1
  28   15   16 1
  29   16   33 1
  30   16   34 1
  31   16   35 1
  32   17   18 1
  33   17   36 1
  34   17   37 1
  35   18   19 1
  36   18   38 1
  37   18   39 1
  38   19   20 1
  39   20   21 1
  40   20   40 1
  41   20   41 1
  42   21   42 1
  43   21   43 1
  44   22   44 1
  45   22   45 1
  46   22   46 1
  47   23   24 1
  48   23   47 1
  49   23   48 1
  50   23   49 1
  51   24   50 1
  52   24   51 1

#	End of record

