#	Name: ASD03092967
#	Creating user name:	WinNT
#	Creation time:	15. 06. 2019 20:33

#	Modifying user name:	WinNT
#	Modification time:	15. 06. 2019 20:33

#	Program:	/corina/corina34_cracker 3.40 0067  02.08.2006

@<TRIPOS>MOLECULE
ASD03092967
  56   58    0    0    0
SMALL
NO_CHARGES


@<TRIPOS>ATOM
   1 Cl1            0.0000     0.0000     0.0000 Cl      
   2 H2             0.0000     1.3700     0.0000 H       
   3 C3             5.9911    20.2127    12.4858 C.3     
   4 C4             6.0203    18.6830    12.4771 C.3     
   5 H5             5.0000    18.2995    12.4862 H       
   6 C6             6.7396    18.1926    11.2177 C.3     
   7 N7             6.8325    16.7258    11.2526 N.3     
   8 C8             7.5547    16.2780    12.4523 C.3     
   9 C9             6.8272    16.7876    13.6992 C.3     
  10 H10            5.8306    16.3483    13.7442 H       
  11 C11            7.6167    16.3922    14.9487 C.3     
  12 O12            6.7178    18.2121    13.6334 O.3     
  13 C13            7.4333    16.2371    10.0979 C.ar    
  14 C14            7.6077    14.8665     9.9381 C.ar    
  15 C15            8.2004    14.4007     8.7665 C.ar    
  16 C16            8.4060    12.9500     8.5493 C.2     
  17 O17            8.3132    12.4840     7.4309 O.2     
  18 N18            8.6961    12.1469     9.5921 N.am    
  19 C19            8.7797    10.7681     9.4075 C.ar    
  20 C20            9.1873     9.9562    10.4597 C.ar    
  21 C21            9.2661     8.5885    10.2636 C.ar    
  22 C22            8.9328     8.0781     9.0156 C.ar    
  23 Cl23           9.0138     6.3700     8.7162 Cl      
  24 C24            8.5354     8.9447     8.0147 C.ar    
  25 N25            8.4649    10.2435     8.2336 N.ar    
  26 C26            8.5991    15.3345     7.7944 C.ar    
  27 C27            9.1725    14.8024     6.5068 C.3     
  28 C28           10.1415    15.8003     5.8743 C.3     
  29 O29            9.4008    16.6563     5.0000 O.3     
  30 C30            8.3830    17.4100     5.6522 C.3     
  31 C31            8.8715    17.7294     7.0670 C.3     
  32 C32            8.4144    16.6736     8.0396 C.ar    
  33 N33            7.8288    17.0773     9.1595 N.ar    
  34 H34            7.0116    20.5956    12.4768 H       
  35 H35            5.4608    20.5711    11.6036 H       
  36 H36            5.4803    20.5613    13.3834 H       
  37 H37            6.1792    18.5009    10.3351 H       
  38 H38            7.7416    18.6201    11.1812 H       
  39 H39            7.5893    15.1887    12.4708 H       
  40 H40            8.5698    16.6748    12.4354 H       
  41 H41            8.6126    16.8330    14.9039 H       
  42 H42            7.0983    16.7552    15.8361 H       
  43 H43            7.7017    15.3065    14.9963 H       
  44 H44            7.2905    14.1774    10.7068 H       
  45 H45            8.8468    12.5287    10.4710 H       
  46 H46            9.4394    10.3871    11.4174 H       
  47 H47            9.5799     7.9331    11.0625 H       
  48 H48            8.2752     8.5529     7.0424 H       
  49 H49            9.7016    13.8713     6.7099 H       
  50 H50            8.3589    14.6041     5.8091 H       
  51 H51           10.6170    16.3950     6.6542 H       
  52 H52           10.9015    15.2642     5.3059 H       
  53 H53            8.2021    18.3360     5.1063 H       
  54 H54            7.4648    16.8247     5.7021 H       
  55 H55            9.9607    17.7724     7.0695 H       
  56 H56            8.4741    18.6968     7.3742 H       
@<TRIPOS>BOND
   1    1    2 1
   2    3    4 1
   3    3   34 1
   4    3   35 1
   5    3   36 1
   6    4    5 1
   7    4   12 1
   8    4    6 1
   9    6    7 1
  10    6   37 1
  11    6   38 1
  12    7    8 1
  13    7   13 1
  14    8    9 1
  15    8   39 1
  16    8   40 1
  17    9   10 1
  18    9   11 1
  19    9   12 1
  20   11   41 1
  21   11   42 1
  22   11   43 1
  23   13   33 ar
  24   13   14 ar
  25   14   15 ar
  26   14   44 1
  27   15   16 1
  28   15   26 ar
  29   16   17 2
  30   16   18 am
  31   18   19 1
  32   18   45 1
  33   19   25 ar
  34   19   20 ar
  35   20   21 ar
  36   20   46 1
  37   21   22 ar
  38   21   47 1
  39   22   23 1
  40   22   24 ar
  41   24   25 ar
  42   24   48 1
  43   26   32 ar
  44   26   27 1
  45   27   28 1
  46   27   49 1
  47   27   50 1
  48   28   29 1
  49   28   51 1
  50   28   52 1
  51   29   30 1
  52   30   31 1
  53   30   53 1
  54   30   54 1
  55   31   32 1
  56   31   55 1
  57   31   56 1
  58   32   33 ar

#	End of record

