#	Name: ASD03090497
#	Creating user name:	WinNT
#	Creation time:	15. 06. 2019 20:28

#	Modifying user name:	WinNT
#	Modification time:	15. 06. 2019 20:28

#	Program:	/corina/corina34_cracker 3.40 0067  02.08.2006

@<TRIPOS>MOLECULE
ASD03090497
  42   45    0    0    0
SMALL
NO_CHARGES


@<TRIPOS>ATOM
   1 C1            -0.0168     1.3903     0.0097 C.ar    
   2 C2             0.0021    -0.0041     0.0020 C.ar    
   3 C3             1.2184    -0.6619    -0.0132 C.ar    
   4 C4             2.3878     0.1036    -0.0203 C.ar    
   5 C5             2.2882     1.4972    -0.0118 C.ar    
   6 N6             1.1143     2.0860     0.0026 N.ar    
   7 C7            -1.3138     2.1037     0.0197 C.2     
   8 O8            -2.3535     1.4744     0.0212 O.2     
   9 N9            -1.3417     3.4512     0.0271 N.am    
  10 C10            3.7164    -0.5544    -0.0361 C.ar    
  11 C11            4.8785     0.2155    -0.0431 C.ar    
  12 C12            6.1123    -0.4025    -0.0573 C.ar    
  13 C13            6.1972    -1.7832    -0.0650 C.ar    
  14 C14            5.0474    -2.5524    -0.0586 C.ar    
  15 C15            3.8082    -1.9455    -0.0381 C.ar    
  16 C16           -2.6253     4.1573     0.0370 C.3     
  17 N17           -1.7157     9.7105    -0.2103 N.pl3   
  18 C18           -1.6945     9.8842    -1.5674 C.2     
  19 C19           -1.8904     8.7072    -2.1825 C.2     
  20 C20           -2.0499     7.6972    -1.1335 C.ar    
  21 C21           -2.2762     6.3194    -1.1392 C.ar    
  22 C22           -2.3806     5.6443     0.0440 C.ar    
  23 C23           -2.2635     6.3172     1.2526 C.ar    
  24 C24           -2.0407     7.6763     1.2813 C.ar    
  25 C25           -1.9310     8.3838     0.0884 C.ar    
  26 H26           -0.9218    -0.5633     0.0082 H       
  27 H27            1.2636    -1.7409    -0.0191 H       
  28 H28            3.1864     2.0968    -0.0172 H       
  29 H29           -0.5118     3.9535     0.0260 H       
  30 H30            4.8134     1.2935    -0.0377 H       
  31 H31            7.0133     0.1929    -0.0627 H       
  32 H32            7.1650    -2.2626    -0.0765 H       
  33 H33            5.1198    -3.6299    -0.0651 H       
  34 H34            2.9112    -2.5469    -0.0282 H       
  35 H35           -3.1955     3.8870    -0.8517 H       
  36 H36           -3.1871     3.8773     0.9282 H       
  37 H37           -1.5930    10.4162     0.4438 H       
  38 H38           -1.5431    10.8284    -2.0693 H       
  39 H39           -1.9239     8.5372    -3.2485 H       
  40 H40           -2.3692     5.7893    -2.0756 H       
  41 H41           -2.3484     5.7697     2.1797 H       
  42 H42           -1.9515     8.1908     2.2266 H       
@<TRIPOS>BOND
   1    1    2 ar
   2    1    6 ar
   3    1    7 1
   4    2    3 ar
   5    2   26 1
   6    3    4 ar
   7    3   27 1
   8    4    5 ar
   9    4   10 1
  10    5    6 ar
  11    5   28 1
  12    7    8 2
  13    7    9 am
  14    9   16 1
  15    9   29 1
  16   10   11 ar
  17   10   15 ar
  18   11   12 ar
  19   11   30 1
  20   12   13 ar
  21   12   31 1
  22   13   14 ar
  23   13   32 1
  24   14   15 ar
  25   14   33 1
  26   15   34 1
  27   16   22 1
  28   16   35 1
  29   16   36 1
  30   17   18 1
  31   17   25 1
  32   17   37 1
  33   18   19 2
  34   18   38 1
  35   19   20 1
  36   19   39 1
  37   20   21 ar
  38   20   25 ar
  39   21   22 ar
  40   21   40 1
  41   22   23 ar
  42   23   24 ar
  43   23   41 1
  44   24   25 ar
  45   24   42 1

#	End of record

