#	Name: ASD00845222
#	Creating user name:	WinNT
#	Creation time:	15. 06. 2019 18:52

#	Modifying user name:	WinNT
#	Modification time:	15. 06. 2019 18:52

#	Program:	/corina/corina34_cracker 3.40 0067  02.08.2006

@<TRIPOS>MOLECULE
ASD00845222
  92   97    0    0    0
SMALL
NO_CHARGES


@<TRIPOS>ATOM
   1 F1            -0.0934    -3.1266     4.7188 F       
   2 C2            -0.0167     1.3829     0.0096 C.ar    
   3 C3             0.0021    -0.0041     0.0020 C.ar    
   4 C4             1.2143    -0.6791    -0.0132 C.ar    
   5 C5             2.3989     0.0312    -0.0207 C.ar    
   6 C6             2.3774     1.4139    -0.0126 C.ar    
   7 C7             1.1710     2.0888     0.0021 C.ar    
   8 C8             1.2384    -2.1858    -0.0210 C.3     
   9 C9             0.4953    -2.7219    -1.2261 C.2     
  10 O10            2.6067    -2.6715    -0.0097 O.3     
  11 C11            3.3980    -2.2932    -1.0313 C.2     
  12 N12            4.6790    -2.7090    -1.0811 N.am    
  13 O13            2.9572    -1.5768    -1.9082 O.2     
  14 C14            5.5605    -2.3076    -2.1880 C.3     
  15 C15            6.8541    -1.7366    -1.5975 C.3     
  16 N16            7.4341    -2.7109    -0.6636 N.3     
  17 C17            6.5391    -2.9555     0.4753 C.3     
  18 C18            5.2343    -3.5714    -0.0270 C.3     
  19 C19            8.7610    -2.2767    -0.2066 C.3     
  20 C20            9.2797    -3.2491     0.8563 C.3     
  21 C21           10.6869    -2.8265     1.2842 C.3     
  22 N22           11.5768    -2.8299     0.1161 N.3     
  23 C23           11.1252    -1.8689    -0.8983 C.3     
  24 C24            9.7310    -2.2630    -1.3913 C.3     
  25 C25           12.9662    -2.5636     0.5119 C.3     
  26 O26            0.7742    -2.5259    -2.3901 O.2     
  27 N27           -0.5308    -3.4561    -0.7641 N.am    
  28 C28            0.4693    -2.7338     1.1591 C.ar    
  29 C29           -0.5745    -3.4835     0.6314 C.ar    
  30 C30            0.6333    -2.6124     2.5205 C.ar    
  31 C31           -0.2502    -3.2433     3.3820 C.ar    
  32 C32           -1.2951    -3.9938     2.8675 C.ar    
  33 C33           -1.4596    -4.1155     1.5019 C.ar    
  34 Cl34          -2.4029    -4.7849     3.9448 Cl      
  35 C35           -0.9816    -5.8522    -2.0406 C.ar    
  36 C36           -1.3058    -6.8930    -1.1901 C.ar    
  37 C37           -0.1629    -6.0774    -3.1319 C.ar    
  38 C38            0.3333    -7.3435    -3.3749 C.ar    
  39 C39            0.0096    -8.3895    -2.5230 C.ar    
  40 C40           -0.8117    -8.1609    -1.4286 C.ar    
  41 O41            0.4961    -9.6361    -2.7603 O.3     
  42 H42           -1.9455    -6.7146    -0.3384 H       
  43 C43            0.1213   -10.6645    -1.8416 C.3     
  44 C44           13.8789    -2.6980    -0.7086 C.3     
  45 C45           13.0731    -1.1449     1.0749 C.3     
  46 S46           -1.6188    -4.2377    -1.7375 S.o2    
  47 O47           -2.7979    -4.4105    -0.9634 O.2     
  48 O48           -1.6010    -3.5584    -2.9855 O.2     
  49 O49           -1.1648    -0.7006     0.0099 O.3     
  50 C50           -2.3744     0.0601     0.0260 C.3     
  51 C51           -3.5740    -0.8895     0.0328 C.3     
  52 F52           -3.5417    -1.6899    -1.1142 F       
  53 F53           -3.5190    -1.7022     1.1702 F       
  54 H54           -0.9590     1.9106     0.0170 H       
  55 H55            3.3426    -0.4937    -0.0325 H       
  56 H56            3.3047     1.9675    -0.0178 H       
  57 H57            1.1569     3.1687     0.0084 H       
  58 H58            5.7917    -3.1757    -2.8053 H       
  59 H59            5.0664    -1.5464    -2.7919 H       
  60 H60            7.5631    -1.5360    -2.4008 H       
  61 H61            6.6338    -0.8104    -1.0666 H       
  62 H62            7.0197    -3.6389     1.1753 H       
  63 H63            6.3233    -2.0124     0.9773 H       
  64 H64            4.5248    -3.6485     0.7968 H       
  65 H65            5.4313    -4.5615    -0.4382 H       
  66 H66            8.6902    -1.2757     0.2190 H       
  67 H67            8.6158    -3.2314     1.7207 H       
  68 H68            9.3125    -4.2570     0.4425 H       
  69 H69           10.6511    -1.8240     1.7106 H       
  70 H70           11.0648    -3.5252     2.0306 H       
  71 H71           11.0873    -0.8709    -0.4617 H       
  72 H72           11.8213    -1.8721    -1.7370 H       
  73 H73            9.7709    -3.2553    -1.8405 H       
  74 H74            9.3896    -1.5407    -2.1328 H       
  75 H75           13.2707    -3.2808     1.2741 H       
  76 H76            1.4496    -2.0266     2.9167 H       
  77 H77           -2.2763    -4.7021     1.1078 H       
  78 H78            0.0885    -5.2629    -3.7949 H       
  79 H79            0.9725    -7.5190    -4.2276 H       
  80 H80           -1.0655    -8.9736    -0.7641 H       
  81 H81            0.4654   -10.4012    -0.8414 H       
  82 H82           -0.9636   -10.7696    -1.8367 H       
  83 H83            0.5763   -11.6071    -2.1460 H       
  84 H84           14.9098    -2.5004    -0.4149 H       
  85 H85           13.8028    -3.7086    -1.1097 H       
  86 H86           13.5744    -1.9807    -1.4708 H       
  87 H87           12.4228    -1.0492     1.9445 H       
  88 H88           14.1040    -0.9473     1.3686 H       
  89 H89           12.7685    -0.4277     0.3128 H       
  90 H90           -2.3995     0.6837     0.9196 H       
  91 H91           -2.4172     0.6932    -0.8603 H       
  92 H92           -4.4966    -0.3093     0.0451 H       
@<TRIPOS>BOND
   1    1   31 1
   2    2    3 ar
   3    2    7 ar
   4    2   54 1
   5    3    4 ar
   6    3   49 1
   7    4    5 ar
   8    4    8 1
   9    5    6 ar
  10    5   55 1
  11    6    7 ar
  12    6   56 1
  13    7   57 1
  14    8    9 1
  15    8   10 1
  16    8   28 1
  17    9   26 2
  18    9   27 am
  19   10   11 1
  20   11   12 am
  21   11   13 2
  22   12   14 1
  23   12   18 1
  24   14   15 1
  25   14   58 1
  26   14   59 1
  27   15   16 1
  28   15   60 1
  29   15   61 1
  30   16   17 1
  31   16   19 1
  32   17   18 1
  33   17   62 1
  34   17   63 1
  35   18   64 1
  36   18   65 1
  37   19   20 1
  38   19   24 1
  39   19   66 1
  40   20   21 1
  41   20   67 1
  42   20   68 1
  43   21   22 1
  44   21   69 1
  45   21   70 1
  46   22   23 1
  47   22   25 1
  48   23   24 1
  49   23   71 1
  50   23   72 1
  51   24   73 1
  52   24   74 1
  53   25   44 1
  54   25   45 1
  55   25   75 1
  56   27   46 am
  57   27   29 1
  58   28   29 ar
  59   28   30 ar
  60   29   33 ar
  61   30   31 ar
  62   30   76 1
  63   31   32 ar
  64   32   33 ar
  65   32   34 1
  66   33   77 1
  67   35   36 ar
  68   35   37 ar
  69   35   46 1
  70   36   42 1
  71   36   40 ar
  72   37   38 ar
  73   37   78 1
  74   38   39 ar
  75   38   79 1
  76   39   40 ar
  77   39   41 1
  78   40   80 1
  79   41   43 1
  80   43   81 1
  81   43   82 1
  82   43   83 1
  83   44   84 1
  84   44   85 1
  85   44   86 1
  86   45   87 1
  87   45   88 1
  88   45   89 1
  89   46   47 2
  90   46   48 2
  91   49   50 1
  92   50   51 1
  93   50   90 1
  94   50   91 1
  95   51   52 1
  96   51   53 1
  97   51   92 1

#	End of record

