#	Name: ASD01812854
#	Creating user name:	WinNT
#	Creation time:	15. 06. 2019 19:29

#	Modifying user name:	WinNT
#	Modification time:	15. 06. 2019 19:29

#	Program:	/corina/corina34_cracker 3.40 0067  02.08.2006

@<TRIPOS>MOLECULE
ASD01812854
  51   55    0    0    0
SMALL
NO_CHARGES


@<TRIPOS>ATOM
   1 C1            -0.0166     1.3763     0.0096 C.ar    
   2 C2             0.0021    -0.0041     0.0020 C.ar    
   3 C3             1.2089    -0.6873    -0.0128 C.ar    
   4 C4             2.3943     0.0072    -0.0204 C.ar    
   5 C5             2.3945     1.4054    -0.0133 C.ar    
   6 C6             1.1722     2.0915     0.0021 C.ar    
   7 C7             3.8414    -0.4182    -0.0366 C.3     
   8 N8             4.6317     0.8183    -0.0381 N.am    
   9 C9             3.7920     1.8678    -0.0246 C.2     
  10 C10            6.0945     0.8960    -0.0519 C.3     
  11 C11            6.5823     0.9298    -1.4774 C.ar    
  12 C12            6.7456     2.1419    -2.1333 C.ar    
  13 C13            7.1955     2.1297    -3.4419 C.ar    
  14 C14            7.4678     0.9073    -4.0528 C.ar    
  15 N15            7.2985    -0.2299    -3.3905 N.ar    
  16 C16            6.8767    -0.2458    -2.1420 C.ar    
  17 O17            1.1519     3.4477     0.0092 O.3     
  18 O18            4.1377     3.0336    -0.0221 O.2     
  19 C19           -0.0569     4.0673     0.0236 C.ar    
  20 C20           -0.6630     4.3776     1.2365 C.ar    
  21 C21           -1.8906     5.0069     1.2550 C.ar    
  22 C22           -2.5249     5.3329     0.0532 C.ar    
  23 C23           -1.9128     5.0200    -1.1635 C.ar    
  24 C24           -0.6829     4.3950    -1.1744 C.ar    
  25 C25           -3.7994     5.9856     0.0684 C.1     
  26 F26           -0.0490     4.0621     2.3978 F       
  27 N27           -4.8104     6.5035     0.0806 N.1     
  28 F28           -0.0883     4.0964    -2.3501 F       
  29 C29            8.2561    -0.2389    -6.1796 C.2     
  30 C30            7.9503     0.8771    -5.4551 C.2     
  31 C31            8.1762     1.9951    -6.2826 C.2     
  32 N32            8.5957     1.5631    -7.4419 N.2     
  33 N33            8.6540     0.1648    -7.4016 N.pl3   
  34 C34            9.0761    -0.7089    -8.4992 C.3     
  35 H35           -0.9603     1.9014     0.0169 H       
  36 H36           -0.9272    -0.5543     0.0080 H       
  37 H37            1.2168    -1.7673    -0.0179 H       
  38 H38            4.0688    -1.0072     0.8519 H       
  39 H39            4.0514    -0.9982    -0.9353 H       
  40 H40            6.4152     1.8013     0.4634 H       
  41 H41            6.5095     0.0239     0.4535 H       
  42 H42            6.5260     3.0739    -1.6338 H       
  43 H43            7.3334     3.0546    -3.9822 H       
  44 H44            6.7550    -1.1905    -1.6329 H       
  45 H45           -2.3609     5.2469     2.1970 H       
  46 H46           -2.4004     5.2702    -2.0941 H       
  47 H47            8.1945    -1.2603    -5.8340 H       
  48 H48            8.0281     3.0287    -6.0067 H       
  49 H49            8.2099    -0.9764    -9.1044 H       
  50 H50            9.8052    -0.1871    -9.1191 H       
  51 H51            9.5273    -1.6132    -8.0908 H       
@<TRIPOS>BOND
   1    1    2 ar
   2    1    6 ar
   3    1   35 1
   4    2    3 ar
   5    2   36 1
   6    3    4 ar
   7    3   37 1
   8    4    7 1
   9    4    5 ar
  10    5    6 ar
  11    5    9 1
  12    6   17 1
  13    7    8 1
  14    7   38 1
  15    7   39 1
  16    8    9 am
  17    8   10 1
  18    9   18 2
  19   10   11 1
  20   10   40 1
  21   10   41 1
  22   11   12 ar
  23   11   16 ar
  24   12   13 ar
  25   12   42 1
  26   13   14 ar
  27   13   43 1
  28   14   15 ar
  29   14   30 1
  30   15   16 ar
  31   16   44 1
  32   17   19 1
  33   19   20 ar
  34   19   24 ar
  35   20   21 ar
  36   20   26 1
  37   21   22 ar
  38   21   45 1
  39   22   23 ar
  40   22   25 1
  41   23   24 ar
  42   23   46 1
  43   24   28 1
  44   25   27 3
  45   29   30 2
  46   29   33 1
  47   29   47 1
  48   30   31 1
  49   31   32 2
  50   31   48 1
  51   32   33 1
  52   33   34 1
  53   34   49 1
  54   34   50 1
  55   34   51 1

#	End of record

