#	Name: ASD03731771
#	Creating user name:	WinNT
#	Creation time:	15. 06. 2019 20:46

#	Modifying user name:	WinNT
#	Modification time:	15. 06. 2019 20:46

#	Program:	/corina/corina34_cracker 3.40 0067  02.08.2006

@<TRIPOS>MOLECULE
ASD03731771
  37   38    0    0    0
SMALL
NO_CHARGES


@<TRIPOS>ATOM
   1 C1             0.3765     1.0890     1.9839 C.2     
   2 C2             0.2926    -0.2838     1.4564 C.ar    
   3 C3             1.3792    -0.8402     0.7651 C.ar    
   4 C4             1.2919    -2.1323     0.2727 C.ar    
   5 C5             0.1319    -2.8715     0.4643 C.ar    
   6 C6            -0.9459    -2.3196     1.1495 C.ar    
   7 C7            -0.8684    -1.0394     1.6479 C.ar    
   8 O8             1.3892     1.7424     1.8205 O.2     
   9 N9            -0.6709     1.6230     2.6428 N.am    
  10 S10           -0.5765     3.1663     3.2358 S.o2    
  11 O11           -1.8282     3.3728     3.8761 O.2     
  12 O12            0.6366     3.1839     3.9756 O.2     
  13 C13           -0.4369     4.2108     1.7593 C.3     
  14 O14            2.5115    -0.1154     0.5790 O.3     
  15 C15            3.5202    -0.2177     1.5860 C.3     
  16 F16            2.3351    -2.6730    -0.3941 F       
  17 O17            0.0491    -4.1373    -0.0192 O.3     
  18 C18           -1.1395    -4.7869     0.0933 C.ar    
  19 C19           -2.0931    -4.6682    -0.9076 C.ar    
  20 C20           -3.3011    -5.3298    -0.7919 C.ar    
  21 C21           -3.5596    -6.1108     0.3235 C.ar    
  22 C22           -2.6087    -6.2295     1.3221 C.ar    
  23 C23           -1.3980    -5.5737     1.2061 C.ar    
  24 F24           -4.7410    -6.7565     0.4362 F       
  25 Cl25          -4.4949    -5.1821    -2.0436 Cl      
  26 H26           -1.8451    -2.8998     1.2946 H       
  27 H27           -1.7058    -0.6167     2.1831 H       
  28 H28           -1.4801     1.1033     2.7697 H       
  29 H29           -1.3156     4.0697     1.1300 H       
  30 H30           -0.3688     5.2565     2.0591 H       
  31 H31            0.4577     3.9337     1.2016 H       
  32 H32            4.3692     0.4098     1.3149 H       
  33 H33            3.1142     0.1135     2.5418 H       
  34 H34            3.8465    -1.2543     1.6694 H       
  35 H35           -1.8916    -4.0590    -1.7763 H       
  36 H36           -2.8115    -6.8384     2.1907 H       
  37 H37           -0.6548    -5.6703     1.9837 H       
@<TRIPOS>BOND
   1    1    2 1
   2    1    8 2
   3    1    9 am
   4    2    3 ar
   5    2    7 ar
   6    3    4 ar
   7    3   14 1
   8    4    5 ar
   9    4   16 1
  10    5    6 ar
  11    5   17 1
  12    6    7 ar
  13    6   26 1
  14    7   27 1
  15    9   10 am
  16    9   28 1
  17   10   11 2
  18   10   12 2
  19   10   13 1
  20   13   29 1
  21   13   30 1
  22   13   31 1
  23   14   15 1
  24   15   32 1
  25   15   33 1
  26   15   34 1
  27   17   18 1
  28   18   19 ar
  29   18   23 ar
  30   19   20 ar
  31   19   35 1
  32   20   21 ar
  33   20   25 1
  34   21   22 ar
  35   21   24 1
  36   22   23 ar
  37   22   36 1
  38   23   37 1

#	End of record

