#	Name: ASD04880447
#	Creating user name:	WinNT
#	Creation time:	15. 06. 2019 20:53

#	Modifying user name:	WinNT
#	Modification time:	15. 06. 2019 20:53

#	Program:	/corina/corina34_cracker 3.40 0067  02.08.2006

@<TRIPOS>MOLECULE
ASD04880447
  30   32    0    0    0
SMALL
NO_CHARGES


@<TRIPOS>ATOM
   1 C1            -0.0034     1.3480     0.2196 C.2     
   2 C2             0.0117    -0.0138     0.1809 C.2     
   3 C3            -1.1532    -0.9165     0.1282 C.2     
   4 N4            -1.0958    -2.2032     0.0926 N.2     
   5 N5            -2.3406    -2.8275     0.0466 N.am    
   6 C6            -3.3905    -1.7964     0.0524 C.3     
   7 C7            -2.5992    -0.4749     0.1142 C.3     
   8 C8            -2.5491    -4.1583     0.0033 C.2     
   9 C9            -1.4024    -5.0822    -0.1241 C.ar    
  10 O10           -3.6806    -4.5990     0.0691 O.2     
  11 C11           -1.5989    -6.4607    -0.0257 C.ar    
  12 C12           -0.5224    -7.3185    -0.1458 C.ar    
  13 C13            0.7491    -6.8117    -0.3633 C.ar    
  14 C14            0.9483    -5.4466    -0.4610 C.ar    
  15 C15           -0.1196    -4.5801    -0.3491 C.ar    
  16 F16           -0.7095    -8.6531    -0.0505 F       
  17 O17            1.2634     1.7838     0.2608 O.3     
  18 C18            2.1229     0.7535     0.2507 C.2     
  19 C19            1.4305    -0.3959     0.2020 C.2     
  20 H20           -0.8859     1.9706     0.2135 H       
  21 H21           -3.9851    -1.8493    -0.8596 H       
  22 H22           -4.0256    -1.9006     0.9321 H       
  23 H23           -2.8451     0.0759     1.0221 H       
  24 H24           -2.7995     0.1323    -0.7685 H       
  25 H25           -2.5896    -6.8557     0.1442 H       
  26 H26            1.5879    -7.4856    -0.4566 H       
  27 H27            1.9417    -5.0580    -0.6299 H       
  28 H28            0.0382    -3.5145    -0.4261 H       
  29 H29            3.1994     0.8356     0.2768 H       
  30 H30            1.8341    -1.3974     0.1830 H       
@<TRIPOS>BOND
   1    1    2 2
   2    1   17 1
   3    1   20 1
   4    2    3 1
   5    2   19 1
   6    3    4 2
   7    3    7 1
   8    4    5 1
   9    5    6 1
  10    5    8 am
  11    6    7 1
  12    6   21 1
  13    6   22 1
  14    7   23 1
  15    7   24 1
  16    8    9 1
  17    8   10 2
  18    9   11 ar
  19    9   15 ar
  20   11   12 ar
  21   11   25 1
  22   12   13 ar
  23   12   16 1
  24   13   14 ar
  25   13   26 1
  26   14   15 ar
  27   14   27 1
  28   15   28 1
  29   17   18 1
  30   18   19 2
  31   18   29 1
  32   19   30 1

#	End of record

