#	Name: ASD03240712
#	Creating user name:	WinNT
#	Creation time:	15. 06. 2019 20:35

#	Modifying user name:	WinNT
#	Modification time:	15. 06. 2019 20:35

#	Program:	/corina/corina34_cracker 3.40 0067  02.08.2006

@<TRIPOS>MOLECULE
ASD03240712
  60   65    0    0    0
SMALL
NO_CHARGES


@<TRIPOS>ATOM
   1 C1            -0.0162     1.3406     0.0094 C.2     
   2 N2             0.0021    -0.0041     0.0020 N.2     
   3 C3             1.1202    -0.6827    -0.0123 C.2     
   4 C4             2.3899     0.0407    -0.0205 C.ar    
   5 C5             2.3641     1.4519    -0.0127 C.ar    
   6 N6             1.1344     2.0817     0.0024 N.pl3   
   7 C7             3.6179    -0.6286    -0.0353 C.ar    
   8 C8             4.7783     0.1389    -0.0418 C.ar    
   9 C9             4.6723     1.5432    -0.0333 C.ar    
  10 N10            3.4908     2.1422    -0.0193 N.ar    
  11 N11            0.7735     3.4345     0.0131 N.2     
  12 C12           -0.5349     3.5228     0.0261 C.2     
  13 C13           -1.0721     2.2417     0.0301 C.2     
  14 C14            5.9041     2.3651    -0.0397 C.ar    
  15 C15            5.9320     3.5796    -0.7254 C.ar    
  16 C16            7.0827     4.3409    -0.7277 C.ar    
  17 C17            8.2073     3.9021    -0.0517 C.ar    
  18 C18            8.1858     2.6985     0.6302 C.ar    
  19 C19            7.0393     1.9309     0.6447 C.ar    
  20 C20            9.4610     4.7383    -0.0587 C.3     
  21 N21            9.4377     5.6651     1.0808 N.3     
  22 C22           10.7376     6.3277     1.2469 C.3     
  23 C23           10.6346     7.3878     2.3457 C.3     
  24 C24           10.2109     6.7183     3.6560 C.3     
  25 C25            8.8782     5.9950     3.4427 C.3     
  26 C26            9.0322     4.9752     2.3121 C.3     
  27 C27            6.1096    -0.5133    -0.0570 C.ar    
  28 C28            6.4052    -1.5217     0.8589 C.ar    
  29 C29            7.6459    -2.1255     0.8397 C.ar    
  30 C30            8.5955    -1.7319    -0.0860 C.ar    
  31 C31            8.3078    -0.7318    -0.9973 C.ar    
  32 C32            7.0686    -0.1245    -0.9910 C.ar    
  33 C33           -1.3265     4.8050     0.0405 C.3     
  34 H34            1.1053    -1.7626    -0.0176 H       
  35 H35            3.6639    -1.7076    -0.0412 H       
  36 H36           -2.1226     1.9916     0.0445 H       
  37 H37            5.0549     3.9230    -1.2537 H       
  38 H38            7.1058     5.2812    -1.2585 H       
  39 H39            9.0668     2.3612     1.1560 H       
  40 H40            7.0222     0.9939     1.1814 H       
  41 H41           10.3320     4.0878     0.0198 H       
  42 H42            9.5139     5.3059    -0.9877 H       
  43 H43           11.4891     5.5886     1.5246 H       
  44 H44           11.0253     6.8032     0.3092 H       
  45 H45           11.6037     7.8686     2.4795 H       
  46 H46            9.8931     8.1348     2.0623 H       
  47 H47           10.9712     5.9989     3.9600 H       
  48 H48           10.0942     7.4759     4.4310 H       
  49 H49            8.5924     5.4807     4.3603 H       
  50 H50            8.1091     6.7201     3.1766 H       
  51 H51            8.0811     4.4685     2.1481 H       
  52 H52            9.7916     4.2425     2.5848 H       
  53 H53            5.6647    -1.8296     1.5823 H       
  54 H54            7.8762    -2.9067     1.5491 H       
  55 H55            9.5653    -2.2071    -0.0971 H       
  56 H56            9.0531    -0.4283    -1.7176 H       
  57 H57            6.8436     0.6534    -1.7057 H       
  58 H58           -1.5276     5.1194    -0.9837 H       
  59 H59           -2.2695     4.6440     0.5629 H       
  60 H60           -0.7550     5.5791     0.5526 H       
@<TRIPOS>BOND
   1    1    2 1
   2    1    6 1
   3    1   13 2
   4    2    3 2
   5    3    4 1
   6    3   34 1
   7    4    5 ar
   8    4    7 ar
   9    5    6 1
  10    5   10 ar
  11    6   11 1
  12    7    8 ar
  13    7   35 1
  14    8    9 ar
  15    8   27 1
  16    9   10 ar
  17    9   14 1
  18   11   12 2
  19   12   13 1
  20   12   33 1
  21   13   36 1
  22   14   15 ar
  23   14   19 ar
  24   15   16 ar
  25   15   37 1
  26   16   17 ar
  27   16   38 1
  28   17   18 ar
  29   17   20 1
  30   18   19 ar
  31   18   39 1
  32   19   40 1
  33   20   21 1
  34   20   41 1
  35   20   42 1
  36   21   22 1
  37   21   26 1
  38   22   23 1
  39   22   43 1
  40   22   44 1
  41   23   24 1
  42   23   45 1
  43   23   46 1
  44   24   25 1
  45   24   47 1
  46   24   48 1
  47   25   26 1
  48   25   49 1
  49   25   50 1
  50   26   51 1
  51   26   52 1
  52   27   28 ar
  53   27   32 ar
  54   28   29 ar
  55   28   53 1
  56   29   30 ar
  57   29   54 1
  58   30   31 ar
  59   30   55 1
  60   31   32 ar
  61   31   56 1
  62   32   57 1
  63   33   58 1
  64   33   59 1
  65   33   60 1

#	End of record

