#	Name: ASD01883438
#	Creating user name:	WinNT
#	Creation time:	15. 06. 2019 19:46

#	Modifying user name:	WinNT
#	Modification time:	15. 06. 2019 19:46

#	Program:	/corina/corina34_cracker 3.40 0067  02.08.2006

@<TRIPOS>MOLECULE
ASD01883438
  56   58    0    0    0
SMALL
NO_CHARGES


@<TRIPOS>ATOM
   1 N1            -0.0080     1.3271     0.0354 N.am    
   2 C2            -0.3623     0.6471    -1.0708 C.2     
   3 C3            -1.5938    -0.0487    -1.1070 C.2     
   4 C4            -2.4239    -0.0108     0.0261 C.2     
   5 C5            -1.9981     0.7175     1.1524 C.2     
   6 C6            -0.8092     1.3586     1.1319 C.2     
   7 O7             0.3768     0.6309    -2.0406 O.2     
   8 C8            -1.9868    -0.7769    -2.2757 C.1     
   9 N9            -2.2985    -1.3546    -3.2029 N.1     
  10 N10           -3.6309    -0.6732     0.0341 N.pl3   
  11 C11           -4.8919     0.0702     0.1608 C.3     
  12 C12           -5.6944    -0.5155     1.3268 C.3     
  13 C13           -5.8708    -2.0207     1.1144 C.3     
  14 C14           -4.4985    -2.6976     1.0843 C.3     
  15 C15           -3.6827    -2.1362    -0.0901 C.3     
  16 C16            1.2701     2.0427     0.0594 C.3     
  17 C17            1.0645     3.4711    -0.4488 C.3     
  18 C18            2.3993     4.2185    -0.4237 C.3     
  19 C19            2.2199     5.6040    -1.0473 C.3     
  20 C20            2.8729     4.3680     1.0235 C.3     
  21 C21           -6.7015    -2.6033     2.2596 C.3     
  22 C22           -6.9793    -4.0594     1.9885 C.ar    
  23 C23           -6.1014    -5.0265     2.4412 C.ar    
  24 C24           -6.3562    -6.3622     2.1925 C.ar    
  25 C25           -7.4892    -6.7308     1.4914 C.ar    
  26 C26           -8.3675    -5.7638     1.0395 C.ar    
  27 C27           -8.1149    -4.4284     1.2920 C.ar    
  28 H28           -2.6200     0.7608     2.0343 H       
  29 H29           -0.4930     1.9144     2.0022 H       
  30 H30           -4.6785     1.1212     0.3555 H       
  31 H31           -5.4656    -0.0236    -0.7613 H       
  32 H32           -5.1602    -0.3399     2.2606 H       
  33 H33           -6.6729    -0.0373     1.3715 H       
  34 H34           -6.3831    -2.1964     0.1685 H       
  35 H35           -3.9756    -2.5016     2.0204 H       
  36 H36           -4.6258    -3.7726     0.9564 H       
  37 H37           -4.1593    -2.4118    -1.0309 H       
  38 H38           -2.6709    -2.5405    -0.0585 H       
  39 H39            1.6512     2.0716     1.0802 H       
  40 H40            1.9865     1.5287    -0.5814 H       
  41 H41            0.6835     3.4422    -1.4696 H       
  42 H42            0.3482     3.9852     0.1920 H       
  43 H43            3.1407     3.6573    -0.9924 H       
  44 H44            1.4785     6.1652    -0.4785 H       
  45 H45            3.1708     6.1365    -1.0294 H       
  46 H46            1.8825     5.4975    -2.0783 H       
  47 H47            3.0008     3.3809     1.4678 H       
  48 H48            3.8239     4.9004     1.0414 H       
  49 H49            2.1315     4.9292     1.5923 H       
  50 H50           -6.1496    -2.5066     3.1945 H       
  51 H51           -7.6443    -2.0617     2.3366 H       
  52 H52           -5.2163    -4.7385     2.9889 H       
  53 H53           -5.6700    -7.1177     2.5455 H       
  54 H54           -7.6879    -7.7744     1.2965 H       
  55 H55           -9.2525    -6.0518     0.4915 H       
  56 H56           -8.8012    -3.6729     0.9389 H       
@<TRIPOS>BOND
   1    1    2 am
   2    1   16 1
   3    1    6 1
   4    2    3 1
   5    2    7 2
   6    3    4 2
   7    3    8 1
   8    4    5 1
   9    4   10 1
  10    5    6 2
  11    5   28 1
  12    6   29 1
  13    8    9 3
  14   10   11 1
  15   10   15 1
  16   11   12 1
  17   11   30 1
  18   11   31 1
  19   12   13 1
  20   12   32 1
  21   12   33 1
  22   13   14 1
  23   13   21 1
  24   13   34 1
  25   14   15 1
  26   14   35 1
  27   14   36 1
  28   15   37 1
  29   15   38 1
  30   16   17 1
  31   16   39 1
  32   16   40 1
  33   17   18 1
  34   17   41 1
  35   17   42 1
  36   18   19 1
  37   18   20 1
  38   18   43 1
  39   19   44 1
  40   19   45 1
  41   19   46 1
  42   20   47 1
  43   20   48 1
  44   20   49 1
  45   21   22 1
  46   21   50 1
  47   21   51 1
  48   22   23 ar
  49   22   27 ar
  50   23   24 ar
  51   23   52 1
  52   24   25 ar
  53   24   53 1
  54   25   26 ar
  55   25   54 1
  56   26   27 ar
  57   26   55 1
  58   27   56 1

#	End of record

