#	Name: ASD00843663
#	Creating user name:	WinNT
#	Creation time:	15. 06. 2019 18:47

#	Modifying user name:	WinNT
#	Modification time:	15. 06. 2019 18:47

#	Program:	/corina/corina34_cracker 3.40 0067  02.08.2006

@<TRIPOS>MOLECULE
ASD00843663
 101  106    0    0    0
SMALL
NO_CHARGES


@<TRIPOS>ATOM
   1 F1             5.6100    -2.3576    -2.1921 F       
   2 N2             0.7512     1.1466    -0.6362 N.ar    
   3 C3             0.9601    -0.1436    -0.8381 C.ar    
   4 C4             0.8546    -1.0501     0.2093 C.ar    
   5 C5             0.5272    -0.5858     1.4711 C.ar    
   6 C6             0.3158     0.7758     1.6414 C.ar    
   7 C7             0.4377     1.6192     0.5553 C.ar    
   8 C8             1.0930    -2.5194    -0.0256 C.3     
   9 C9             0.7878    -3.3130     1.2269 C.2     
  10 C10            0.2438    -3.0184    -1.1964 C.3     
  11 C11           -1.2032    -2.6785    -0.9482 C.2     
  12 N12           -2.1496    -3.0847    -1.8176 N.am    
  13 O13           -1.5162    -2.0395     0.0340 O.2     
  14 C14           -3.5473    -2.6625    -1.6539 C.3     
  15 C15           -4.4399    -3.9074    -1.6385 C.3     
  16 C16           -4.1767    -4.7345    -2.8990 C.3     
  17 C17           -2.7152    -5.1882    -2.9174 C.3     
  18 C18           -1.8021    -3.9533    -2.9505 C.3     
  19 C19           -5.0913    -5.9610    -2.9040 C.3     
  20 C20           -6.5540    -5.5086    -2.8873 C.3     
  21 C21           -7.4638    -6.7375    -2.9539 C.3     
  22 N22           -7.1801    -7.4921    -4.1813 N.3     
  23 C23           -5.7942    -7.9773    -4.1980 C.3     
  24 C24           -4.8347    -6.7855    -4.1685 C.3     
  25 C25           -8.1284    -8.6015    -4.3482 C.3     
  26 O26           -0.2840    -3.3866     1.7899 O.2     
  27 N27            1.9272    -3.9210     1.5976 N.am    
  28 C28            2.5591    -2.7838    -0.2806 C.ar    
  29 C29            2.9858    -3.6313     0.7342 C.ar    
  30 C30            3.4305    -2.3570    -1.2575 C.ar    
  31 C31            4.7517    -2.7736    -1.2352 C.ar    
  32 C32            5.1897    -3.6195    -0.2275 C.ar    
  33 C33            4.3150    -4.0476     0.7526 C.ar    
  34 F34            6.4776    -4.0270    -0.2040 F       
  35 C35            1.6989    -6.5434     2.4011 C.ar    
  36 C36            0.4273    -6.8611     1.9457 C.ar    
  37 C37            2.6832    -7.5128     2.4380 C.ar    
  38 C38            2.4040    -8.8001     2.0213 C.ar    
  39 C39            1.1337    -9.1229     1.5650 C.ar    
  40 C40            0.1446    -8.1525     1.5274 C.ar    
  41 O41            0.8596   -10.3895     1.1557 O.3     
  42 O42           -0.5402    -5.9076     1.9100 O.3     
  43 C43            1.9264   -11.3379     1.2222 C.3     
  44 C44           -1.8259    -6.3055     1.4296 C.3     
  45 C45           -2.7762    -5.1068     1.4628 C.3     
  46 C46           -7.8814    -9.2855    -5.6943 C.3     
  47 C47           -7.9326    -9.6142    -3.2181 C.3     
  48 O48            1.2801    -0.5862    -2.0801 O.3     
  49 C49            1.2832     0.3805    -3.1325 C.3     
  50 C50            1.7665    -0.2764    -4.4270 C.3     
  51 F51            3.0256    -0.8490    -4.2175 F       
  52 F52            0.8604    -1.2704    -4.8120 F       
  53 S53            2.0610    -4.9008     2.9260 S.o2    
  54 O54            3.4331    -4.8909     3.2954 O.2     
  55 O55            1.0152    -4.5225     3.8106 O.2     
  56 H56            0.4377    -1.2670     2.3043 H       
  57 H57            0.0585     1.1708     2.6130 H       
  58 H58            0.2747     2.6792     0.6825 H       
  59 H59            0.5768    -2.5391    -2.1170 H       
  60 H60            0.3524    -4.0989    -1.2895 H       
  61 H61           -3.6580    -2.1218    -0.7139 H       
  62 H62           -3.8339    -2.0176    -2.4846 H       
  63 H63           -4.2136    -4.5064    -0.7565 H       
  64 H64           -5.4866    -3.6043    -1.6143 H       
  65 H65           -4.3795    -4.1269    -3.7809 H       
  66 H66           -2.5052    -5.7752    -2.0233 H       
  67 H67           -2.5344    -5.7968    -3.8035 H       
  68 H68           -1.9477    -3.4162    -3.8877 H       
  69 H69           -0.7614    -4.2659    -2.8640 H       
  70 H70           -4.8884    -6.5704    -2.0233 H       
  71 H71           -6.7539    -4.9573    -1.9685 H       
  72 H72           -6.7462    -4.8665    -3.7469 H       
  73 H73           -7.2808    -7.3722    -2.0869 H       
  74 H74           -8.5059    -6.4181    -2.9566 H       
  75 H75           -5.6191    -8.6062    -3.3251 H       
  76 H76           -5.6238    -8.5585    -5.1043 H       
  77 H77           -4.9998    -6.1635    -5.0482 H       
  78 H78           -3.8062    -7.1464    -4.1651 H       
  79 H79           -9.1475    -8.2161    -4.3181 H       
  80 H80            3.0844    -1.6985    -2.0404 H       
  81 H81            4.6626    -4.7061     1.5348 H       
  82 H82            3.6723    -7.2635     2.7928 H       
  83 H83            3.1751    -9.5557     2.0505 H       
  84 H84           -0.8446    -8.4019     1.1729 H       
  85 H85            2.7524   -11.0002     0.5963 H       
  86 H86            2.2664   -11.4306     2.2537 H       
  87 H87            1.5741   -12.3065     0.8674 H       
  88 H88           -1.7348    -6.6687     0.4059 H       
  89 H89           -2.2207    -7.0998     2.0632 H       
  90 H90           -2.8673    -4.7436     2.4864 H       
  91 H91           -2.3814    -4.3126     0.8292 H       
  92 H92           -3.7568    -5.4104     1.0963 H       
  93 H93           -6.8622    -9.6709    -5.7244 H       
  94 H94           -8.5850   -10.1087    -5.8182 H       
  95 H95           -8.0209    -8.5640    -6.4994 H       
  96 H96           -8.1085    -9.1269    -2.2591 H       
  97 H97           -8.6362   -10.4374    -3.3419 H       
  98 H98           -6.9134    -9.9996    -3.2482 H       
  99 H99            0.2735     0.7654    -3.2753 H       
 100 H100           1.9511     1.2010    -2.8701 H       
 101 H101           1.8357     0.4761    -5.2125 H       
@<TRIPOS>BOND
   1    1   31 1
   2    2    3 ar
   3    2    7 ar
   4    3    4 ar
   5    3   48 1
   6    4    5 ar
   7    4    8 1
   8    5    6 ar
   9    5   56 1
  10    6    7 ar
  11    6   57 1
  12    7   58 1
  13    8    9 1
  14    8   10 1
  15    8   28 1
  16    9   26 2
  17    9   27 am
  18   10   11 1
  19   10   59 1
  20   10   60 1
  21   11   12 am
  22   11   13 2
  23   12   14 1
  24   12   18 1
  25   14   15 1
  26   14   61 1
  27   14   62 1
  28   15   16 1
  29   15   63 1
  30   15   64 1
  31   16   17 1
  32   16   19 1
  33   16   65 1
  34   17   18 1
  35   17   66 1
  36   17   67 1
  37   18   68 1
  38   18   69 1
  39   19   20 1
  40   19   24 1
  41   19   70 1
  42   20   21 1
  43   20   71 1
  44   20   72 1
  45   21   22 1
  46   21   73 1
  47   21   74 1
  48   22   23 1
  49   22   25 1
  50   23   24 1
  51   23   75 1
  52   23   76 1
  53   24   77 1
  54   24   78 1
  55   25   46 1
  56   25   47 1
  57   25   79 1
  58   27   53 am
  59   27   29 1
  60   28   29 ar
  61   28   30 ar
  62   29   33 ar
  63   30   31 ar
  64   30   80 1
  65   31   32 ar
  66   32   33 ar
  67   32   34 1
  68   33   81 1
  69   35   36 ar
  70   35   37 ar
  71   35   53 1
  72   36   42 1
  73   36   40 ar
  74   37   38 ar
  75   37   82 1
  76   38   39 ar
  77   38   83 1
  78   39   40 ar
  79   39   41 1
  80   40   84 1
  81   41   43 1
  82   42   44 1
  83   43   85 1
  84   43   86 1
  85   43   87 1
  86   44   45 1
  87   44   88 1
  88   44   89 1
  89   45   90 1
  90   45   91 1
  91   45   92 1
  92   46   93 1
  93   46   94 1
  94   46   95 1
  95   47   96 1
  96   47   97 1
  97   47   98 1
  98   48   49 1
  99   49   50 1
 100   49   99 1
 101   49  100 1
 102   50   51 1
 103   50   52 1
 104   50  101 1
 105   53   54 2
 106   53   55 2

#	End of record

