#	Name: ASD03331475
#	Creating user name:	WinNT
#	Creation time:	15. 06. 2019 20:39

#	Modifying user name:	WinNT
#	Modification time:	15. 06. 2019 20:39

#	Program:	/corina/corina34_cracker 3.40 0067  02.08.2006

@<TRIPOS>MOLECULE
ASD03331475
  83   87    0    0    0
SMALL
NO_CHARGES


@<TRIPOS>ATOM
   1 C1            -0.4722     2.6134    -2.8371 C.ar    
   2 C2            -0.5432     1.3251    -3.3247 C.ar    
   3 C3             0.3356     0.3581    -2.8658 C.ar    
   4 C4             1.2903     0.6772    -1.9156 C.ar    
   5 C5             1.3714     1.9634    -1.4198 C.ar    
   6 C6             0.4878     2.9423    -1.8791 C.ar    
   7 C7             0.5693     4.3219    -1.3529 C.2     
   8 Cl8            2.5688     2.3625    -0.2278 Cl      
   9 C9             1.6996     5.0668    -1.2518 C.2     
  10 N10           -0.4881     5.0687    -0.8889 N.pl3   
  11 C11           -0.0332     6.2814    -0.4886 C.2     
  12 C12           -1.8228     4.6441    -0.8383 C.ar    
  13 C13           -2.1915     3.6088     0.0102 C.ar    
  14 C14           -3.5073     3.1922     0.0582 C.ar    
  15 C15           -4.4580     3.8054    -0.7389 C.ar    
  16 C16           -4.0929     4.8372    -1.5858 C.ar    
  17 C17           -2.7796     5.2618    -1.6325 C.ar    
  18 C18            1.3286     6.3200    -0.6987 C.2     
  19 C19            2.2279     7.4498    -0.4081 C.2     
  20 N20            3.2100     7.7694    -1.2740 N.am    
  21 C21            3.3244     7.0772    -2.5649 C.3     
  22 C22            3.3578     8.1229    -3.6839 C.3     
  23 C23            4.4806     9.1252    -3.4065 C.3     
  24 C24            4.2101     9.8432    -2.0823 C.3     
  25 C25            4.1830     8.8208    -0.9476 C.3     
  26 C26            5.7961     8.3949    -3.3221 C.2     
  27 N27            4.5370    10.1104    -4.4947 N.3     
  28 C28            5.6053    11.0908    -4.2622 C.3     
  29 C29            5.7302    12.0096    -5.4797 C.3     
  30 C30            4.3966    12.7254    -5.7116 C.3     
  31 C31            3.2926    11.6817    -5.9029 C.3     
  32 C32            3.2384    10.7724    -4.6731 C.3     
  33 O33            2.0843     8.0942     0.6134 O.2     
  34 N34            6.4498     8.0515    -4.4496 N.am    
  35 O35            6.2665     8.1161    -2.2395 O.2     
  36 Cl36           0.2390    -1.2611    -3.4842 Cl      
  37 Cl37          -6.1111     3.2790    -0.6768 Cl      
  38 C38           -0.8716     7.3956     0.0829 C.3     
  39 C39           -0.9398     7.2534     1.6048 C.3     
  40 C40           -1.7910     8.3847     2.1851 C.3     
  41 N41           -1.8564     8.2485     3.6422 N.am    
  42 S42           -2.3855     9.5146     4.5693 S.o2    
  43 O43           -2.2902     9.0357     5.9037 O.2     
  44 O44           -1.6074    10.6196     4.1302 O.2     
  45 C45           -4.1225     9.7298     4.0926 C.3     
  46 H46           -1.1554     3.3674    -3.1994 H       
  47 H47           -1.2861     1.0698    -4.0659 H       
  48 H48            1.9727    -0.0812    -1.5612 H       
  49 H49            2.6954     4.7624    -1.5384 H       
  50 H50           -1.4498     3.1294     0.6319 H       
  51 H51           -3.7946     2.3869     0.7180 H       
  52 H52           -4.8366     5.3139    -2.2072 H       
  53 H53           -2.4952     6.0674    -2.2933 H       
  54 H54            4.2431     6.4909    -2.5851 H       
  55 H55            2.4660     6.4200    -2.7045 H       
  56 H56            3.5389     7.6288    -4.6384 H       
  57 H57            2.4029     8.6472    -3.7205 H       
  58 H58            4.9978    10.5734    -1.8969 H       
  59 H59            3.2472    10.3513    -2.1340 H       
  60 H60            3.8932     9.3130    -0.0192 H       
  61 H61            5.1709     8.3745    -0.8341 H       
  62 H62            5.3664    11.6860    -3.3809 H       
  63 H63            6.5489    10.5688    -4.1028 H       
  64 H64            6.5126    12.7469    -5.3004 H       
  65 H65            5.9826    11.4166    -6.3587 H       
  66 H66            4.1629    13.3489    -4.8487 H       
  67 H67            4.4677    13.3480    -6.6035 H       
  68 H68            2.3336    12.1849    -6.0260 H       
  69 H69            3.5068    11.0836    -6.7886 H       
  70 H70            2.4629    10.0193    -4.8123 H       
  71 H71            3.0107    11.3692    -3.7899 H       
  72 H72            6.0735     8.2745    -5.3154 H       
  73 H73            7.2965     7.5814    -4.3952 H       
  74 H74           -0.4230     8.3556    -0.1725 H       
  75 H75           -1.8780     7.3429    -0.3324 H       
  76 H76           -1.3885     6.2934     1.8602 H       
  77 H77            0.0665     7.3062     2.0201 H       
  78 H78           -1.3424     9.3447     1.9296 H       
  79 H79           -2.7974     8.3319     1.7697 H       
  80 H80           -1.5898     7.4167     4.0641 H       
  81 H81           -4.6733     8.8131     4.3033 H       
  82 H82           -4.5559    10.5528     4.6608 H       
  83 H83           -4.1820     9.9527     3.0273 H       
@<TRIPOS>BOND
   1    1    2 ar
   2    1    6 ar
   3    1   46 1
   4    2    3 ar
   5    2   47 1
   6    3    4 ar
   7    3   36 1
   8    4    5 ar
   9    4   48 1
  10    5    6 ar
  11    5    8 1
  12    6    7 1
  13    7   10 1
  14    7    9 2
  15    9   18 1
  16    9   49 1
  17   10   11 1
  18   10   12 1
  19   11   18 2
  20   11   38 1
  21   12   13 ar
  22   12   17 ar
  23   13   14 ar
  24   13   50 1
  25   14   15 ar
  26   14   51 1
  27   15   16 ar
  28   15   37 1
  29   16   17 ar
  30   16   52 1
  31   17   53 1
  32   18   19 1
  33   19   20 am
  34   19   33 2
  35   20   21 1
  36   20   25 1
  37   21   22 1
  38   21   54 1
  39   21   55 1
  40   22   23 1
  41   22   56 1
  42   22   57 1
  43   23   24 1
  44   23   26 1
  45   23   27 1
  46   24   25 1
  47   24   58 1
  48   24   59 1
  49   25   60 1
  50   25   61 1
  51   26   34 am
  52   26   35 2
  53   27   28 1
  54   27   32 1
  55   28   29 1
  56   28   62 1
  57   28   63 1
  58   29   30 1
  59   29   64 1
  60   29   65 1
  61   30   31 1
  62   30   66 1
  63   30   67 1
  64   31   32 1
  65   31   68 1
  66   31   69 1
  67   32   70 1
  68   32   71 1
  69   34   72 1
  70   34   73 1
  71   38   39 1
  72   38   74 1
  73   38   75 1
  74   39   40 1
  75   39   76 1
  76   39   77 1
  77   40   41 1
  78   40   78 1
  79   40   79 1
  80   41   42 am
  81   41   80 1
  82   42   43 2
  83   42   44 2
  84   42   45 1
  85   45   81 1
  86   45   82 1
  87   45   83 1

#	End of record

