#	Name: ASD01410197
#	Creating user name:	WinNT
#	Creation time:	15. 06. 2019 19:16

#	Modifying user name:	WinNT
#	Modification time:	15. 06. 2019 19:16

#	Program:	/corina/corina34_cracker 3.40 0067  02.08.2006

@<TRIPOS>MOLECULE
ASD01410197
  40   43    0    0    0
SMALL
NO_CHARGES


@<TRIPOS>ATOM
   1 C1            -0.0410     1.3615    -0.0996 C.ar    
   2 C2             0.0221    -0.0125     0.1901 C.ar    
   3 C3            -1.2039    -0.6804     0.4162 C.ar    
   4 C4            -2.3847    -0.0096     0.3524 C.ar    
   5 C5            -2.4178     1.3589     0.0618 C.ar    
   6 C6            -1.2108     2.0372    -0.1603 C.ar    
   7 S7             1.6563     1.8319    -0.3149 S.o2    
   8 C8             2.4140     0.2463    -0.0269 C.2     
   9 C9             1.3750    -0.5660     0.2171 C.2     
  10 C10           -3.7029     2.0779    -0.0057 C.2     
  11 O11           -3.7216     3.2663    -0.2588 O.2     
  12 O12           -4.8570     1.4173     0.2131 O.3     
  13 C13            5.7919    -1.1374    -0.4720 C.2     
  14 O14            6.0130    -0.0518     0.2851 O.3     
  15 C15            4.8654     0.5872     0.5492 C.2     
  16 C16            3.8468    -0.0935    -0.0505 C.2     
  17 C17            4.4774    -1.2370    -0.7253 C.2     
  18 C18            0.9798    -2.4097     1.8812 C.3     
  19 C19            0.7336    -3.9287     1.7726 C.3     
  20 C20            0.6257    -4.2503     0.2718 C.3     
  21 C21            0.8100    -2.9155    -0.4793 C.3     
  22 C22            1.5986    -2.0264     0.5140 C.3     
  23 O23            1.8441     2.1584    -1.6851 O.2     
  24 O24            2.0097     2.6830     0.7667 O.2     
  25 H25           -1.2021    -1.7365     0.6421 H       
  26 H26           -3.3091    -0.5398     0.5279 H       
  27 H27           -1.2158     3.0935    -0.3855 H       
  28 H28           -5.6742     1.9313     0.1580 H       
  29 H29            6.5510    -1.8196    -0.8251 H       
  30 H30            4.7640     1.4875     1.1370 H       
  31 H31            3.9837    -2.0017    -1.3066 H       
  32 H32            0.0393    -1.8809     2.0359 H       
  33 H33            1.6777    -2.1932     2.6900 H       
  34 H34            1.5683    -4.4746     2.2124 H       
  35 H35           -0.1945    -4.1937     2.2790 H       
  36 H36            1.4080    -4.9523    -0.0169 H       
  37 H37           -0.3549    -4.6714     0.0497 H       
  38 H38            1.3840    -3.0682    -1.3933 H       
  39 H39           -0.1580    -2.4684    -0.7059 H       
  40 H40            2.6615    -2.2663     0.4871 H       
@<TRIPOS>BOND
   1    1    2 ar
   2    1    7 1
   3    1    6 ar
   4    2    3 ar
   5    2    9 1
   6    3    4 ar
   7    3   25 1
   8    4    5 ar
   9    4   26 1
  10    5    6 ar
  11    5   10 1
  12    6   27 1
  13    7    8 1
  14    7   23 2
  15    7   24 2
  16    8    9 2
  17    8   16 1
  18    9   22 1
  19   10   11 2
  20   10   12 1
  21   12   28 1
  22   13   14 1
  23   13   17 2
  24   13   29 1
  25   14   15 1
  26   15   16 2
  27   15   30 1
  28   16   17 1
  29   17   31 1
  30   18   19 1
  31   18   22 1
  32   18   32 1
  33   18   33 1
  34   19   20 1
  35   19   34 1
  36   19   35 1
  37   20   21 1
  38   20   36 1
  39   20   37 1
  40   21   22 1
  41   21   38 1
  42   21   39 1
  43   22   40 1

#	End of record

