#	Name: ASD02039107
#	Creating user name:	WinNT
#	Creation time:	15. 06. 2019 20:17

#	Modifying user name:	WinNT
#	Modification time:	15. 06. 2019 20:17

#	Program:	/corina/corina34_cracker 3.40 0067  02.08.2006

@<TRIPOS>MOLECULE
ASD02039107
  39   41    0    0    0
SMALL
NO_CHARGES


@<TRIPOS>ATOM
   1 C1            -0.0167     1.3831     0.0096 C.ar    
   2 C2             0.0021    -0.0041     0.0020 C.ar    
   3 C3             1.2083    -0.6773    -0.0131 C.ar    
   4 C4             2.3962     0.0303    -0.0207 C.ar    
   5 C5             2.3801     1.4128    -0.0131 C.ar    
   6 C6             1.1765     2.0907     0.0021 C.ar    
   7 O7            -1.2021     2.0477     0.0189 O.3     
   8 C8             3.7106    -0.7066    -0.0367 C.3     
   9 C9             4.1419    -0.9488    -1.4845 C.3     
  10 O10            6.6824    -1.1267    -1.5092 O.3     
  11 C11            5.4564    -1.6857    -1.5005 C.2     
  12 N12            5.6134    -2.9768    -1.5077 N.2     
  13 N13            6.8689    -3.2576    -1.5204 N.2     
  14 C14            7.5620    -2.1452    -1.5217 C.2     
  15 N15            8.9404    -2.0381    -1.5342 N.pl3   
  16 C16            9.7689    -3.2462    -1.5471 C.3     
  17 C17           11.2247    -2.8568    -1.5591 C.ar    
  18 C18           11.9033    -2.6834    -0.3671 C.ar    
  19 C19           13.2394    -2.3264    -0.3777 C.ar    
  20 C20           13.8968    -2.1430    -1.5827 C.ar    
  21 C21           13.2164    -2.3169    -2.7741 C.ar    
  22 C22           11.8822    -2.6788    -2.7618 C.ar    
  23 Cl23          15.5738    -1.6944    -1.5977 Cl      
  24 Cl24          14.0919    -2.1080     1.1188 Cl      
  25 H25           -0.9255    -0.5572     0.0083 H       
  26 H26            1.2235    -1.7571    -0.0187 H       
  27 H27            3.3093     1.9633    -0.0186 H       
  28 H28            1.1645     3.1706     0.0076 H       
  29 H29           -1.5410     2.2352     0.9049 H       
  30 H30            4.4675    -0.1106     0.4731 H       
  31 H31            3.5971    -1.6632     0.4734 H       
  32 H32            3.3850    -1.5448    -1.9943 H       
  33 H33            4.2555     0.0078    -1.9946 H       
  34 H34            9.3588    -1.1630    -1.5344 H       
  35 H35            9.5590    -3.8402    -0.6576 H       
  36 H36            9.5424    -3.8327    -2.4375 H       
  37 H37           11.3899    -2.8262     0.5723 H       
  38 H38           13.7285    -2.1740    -3.7142 H       
  39 H39           11.3523    -2.8186    -3.6924 H       
@<TRIPOS>BOND
   1    1    2 ar
   2    1    6 ar
   3    1    7 1
   4    2    3 ar
   5    2   25 1
   6    3    4 ar
   7    3   26 1
   8    4    5 ar
   9    4    8 1
  10    5    6 ar
  11    5   27 1
  12    6   28 1
  13    7   29 1
  14    8    9 1
  15    8   30 1
  16    8   31 1
  17    9   11 1
  18    9   32 1
  19    9   33 1
  20   10   11 1
  21   10   14 1
  22   11   12 2
  23   12   13 1
  24   13   14 2
  25   14   15 1
  26   15   16 1
  27   15   34 1
  28   16   17 1
  29   16   35 1
  30   16   36 1
  31   17   18 ar
  32   17   22 ar
  33   18   19 ar
  34   18   37 1
  35   19   20 ar
  36   19   24 1
  37   20   21 ar
  38   20   23 1
  39   21   22 ar
  40   21   38 1
  41   22   39 1

#	End of record

