#	Name: ASD02590031
#	Creating user name:	WinNT
#	Creation time:	15. 06. 2019 20:25

#	Modifying user name:	WinNT
#	Modification time:	15. 06. 2019 20:25

#	Program:	/corina/corina34_cracker 3.40 0067  02.08.2006

@<TRIPOS>MOLECULE
ASD02590031
  27   29    0    0    0
SMALL
NO_CHARGES


@<TRIPOS>ATOM
   1 C1            -0.0169     1.3976     0.0097 C.ar    
   2 C2             0.0021    -0.0041     0.0020 C.ar    
   3 C3            -1.1643    -0.7121     0.0094 C.ar    
   4 C4            -2.3855    -0.0473     0.0246 C.ar    
   5 C5            -2.4242     1.3609     0.0330 C.ar    
   6 C6            -1.2291     2.0811     0.0308 C.ar    
   7 N7            -3.6974    -0.4669     0.0349 N.pl3   
   8 C8            -4.4833     0.6544     0.0489 C.2     
   9 N9            -3.7295     1.7251     0.0477 N.2     
  10 C10           -5.9632     0.6559     0.0629 C.ar    
  11 C11           -6.6533     1.8670     0.0765 C.ar    
  12 C12           -8.0380     1.8521     0.0890 C.ar    
  13 C13           -8.6869     0.6262     0.0874 C.ar    
  14 C14           -7.9387    -0.5382     0.0735 C.ar    
  15 N15           -6.6231    -0.4964     0.0567 N.ar    
  16 C16            1.2520     2.1504     0.0017 C.2     
  17 O17            1.2377     3.3653     0.0083 O.2     
  18 O18            2.4267     1.4907    -0.0131 O.3     
  19 H19            0.9468    -0.5273    -0.0102 H       
  20 H20           -1.1389    -1.7918     0.0030 H       
  21 H21           -1.2446     3.1610     0.0375 H       
  22 H22           -4.0071    -1.3861     0.0327 H       
  23 H23           -6.1157     2.8037     0.0777 H       
  24 H24           -8.6000     2.7743     0.1000 H       
  25 H25           -9.7659     0.5806     0.0972 H       
  26 H26           -8.4412    -1.4942     0.0722 H       
  27 H27            3.2314     2.0269    -0.0179 H       
@<TRIPOS>BOND
   1    1    2 ar
   2    1   16 1
   3    1    6 ar
   4    2    3 ar
   5    2   19 1
   6    3    4 ar
   7    3   20 1
   8    4    5 ar
   9    4    7 1
  10    5    6 ar
  11    5    9 1
  12    6   21 1
  13    7    8 1
  14    7   22 1
  15    8    9 2
  16    8   10 1
  17   10   11 ar
  18   10   15 ar
  19   11   12 ar
  20   11   23 1
  21   12   13 ar
  22   12   24 1
  23   13   14 ar
  24   13   25 1
  25   14   15 ar
  26   14   26 1
  27   16   17 2
  28   16   18 1
  29   18   27 1

#	End of record

