#	Name: ASD01884609
#	Creating user name:	WinNT
#	Creation time:	15. 06. 2019 19:48

#	Modifying user name:	WinNT
#	Modification time:	15. 06. 2019 19:48

#	Program:	/corina/corina34_cracker 3.40 0067  02.08.2006

@<TRIPOS>MOLECULE
ASD01884609
  38   41    0    0    0
SMALL
NO_CHARGES


@<TRIPOS>ATOM
   1 C1            -0.0164     1.3567     0.0095 C.2     
   2 C2             0.0021    -0.0041     0.0020 C.2     
   3 C3             1.2463    -0.6756    -0.0135 C.2     
   4 C4             2.4129     0.0568    -0.0207 C.2     
   5 N5             2.3718     1.4117    -0.0126 N.am    
   6 C6             1.1968     2.0675     0.0017 C.2     
   7 O7             1.1841     3.2878     0.0084 O.2     
   8 C8             3.6237     2.1726    -0.0195 C.3     
   9 C9             1.2947    -2.1529    -0.0214 C.2     
  10 C10            4.0402     2.4416    -1.4425 C.ar    
  11 C11            3.4498     3.4727    -2.1532 C.ar    
  12 C12            3.8329     3.7199    -3.4604 C.ar    
  13 C13            4.8059     2.9358    -4.0552 C.ar    
  14 C14            5.3951     1.9049    -3.3424 C.ar    
  15 C15            5.0156     1.6624    -2.0360 C.ar    
  16 F16            5.1805     3.1756    -5.3309 F       
  17 F17            2.4998     4.2371    -1.5714 F       
  18 O18            1.7766    -2.9066    -1.0291 O.3     
  19 C19            0.8668    -2.9513     0.9857 C.2     
  20 C20            1.1072    -4.3270     0.5435 C.ar    
  21 C21            1.6826    -4.2196    -0.7351 C.ar    
  22 C22            0.8907    -5.5836     1.1107 C.ar    
  23 C23            1.2368    -6.7093     0.4162 C.ar    
  24 C24            1.8015    -6.6093    -0.8471 C.ar    
  25 C25            2.0274    -5.3763    -1.4221 C.ar    
  26 H26           -0.9570     1.8873     0.0168 H       
  27 H27           -0.9216    -0.5637     0.0082 H       
  28 H28            3.3658    -0.4514    -0.0325 H       
  29 H29            3.4766     3.1189     0.5011 H       
  30 H30            4.4010     1.5978     0.4841 H       
  31 H31            3.3727     4.5238    -4.0156 H       
  32 H32            6.1544     1.2928    -3.8064 H       
  33 H33            5.4757     0.8583    -1.4808 H       
  34 H34            0.4358    -2.6372     1.9249 H       
  35 H35            0.4520    -5.6664     2.0941 H       
  36 H36            1.0698    -7.6824     0.8539 H       
  37 H37            2.0705    -7.5067    -1.3845 H       
  38 H38            2.4676    -5.3105    -2.4061 H       
@<TRIPOS>BOND
   1    1    2 2
   2    1    6 1
   3    1   26 1
   4    2    3 1
   5    2   27 1
   6    3    4 2
   7    3    9 1
   8    4    5 1
   9    4   28 1
  10    5    6 am
  11    5    8 1
  12    6    7 2
  13    8   10 1
  14    8   29 1
  15    8   30 1
  16    9   18 1
  17    9   19 2
  18   10   11 ar
  19   10   15 ar
  20   11   12 ar
  21   11   17 1
  22   12   13 ar
  23   12   31 1
  24   13   14 ar
  25   13   16 1
  26   14   15 ar
  27   14   32 1
  28   15   33 1
  29   18   21 1
  30   19   20 1
  31   19   34 1
  32   20   21 ar
  33   20   22 ar
  34   21   25 ar
  35   22   23 ar
  36   22   35 1
  37   23   24 ar
  38   23   36 1
  39   24   25 ar
  40   24   37 1
  41   25   38 1

#	End of record

