#	Name: ASD01940694
#	Creating user name:	WinNT
#	Creation time:	15. 06. 2019 20:13

#	Modifying user name:	WinNT
#	Modification time:	15. 06. 2019 20:13

#	Program:	/corina/corina34_cracker 3.40 0067  02.08.2006

@<TRIPOS>MOLECULE
ASD01940694
  42   44    0    0    0
SMALL
NO_CHARGES


@<TRIPOS>ATOM
   1 C1             0.2699     1.0088     0.9784 C.ar    
   2 C2            -0.2284     0.3419    -0.1256 C.ar    
   3 C3             0.5750     0.1326    -1.2336 C.ar    
   4 C4             1.8828     0.5905    -1.2408 C.ar    
   5 C5             2.3886     1.2609    -0.1350 C.ar    
   6 C6             1.5776     1.4707     0.9791 C.ar    
   7 N7             2.0826     2.1470     2.0977 N.am    
   8 S8             1.6137     1.6946     3.6202 S.o2    
   9 C9             2.1552    -0.0305     3.7666 C.3     
  10 O10            2.3725     2.5304     4.4833 O.2     
  11 O11            0.1952     1.7709     3.5872 O.2     
  12 F12            0.0830    -0.5196    -2.3096 F       
  13 F13            2.6653     0.3845    -2.3227 F       
  14 N14            3.7112     1.7250    -0.1388 N.pl3   
  15 C15            4.7578     0.8564     0.1849 C.ar    
  16 C16            6.0559     1.3429     0.3063 C.ar    
  17 C17            4.5038    -0.4927     0.3916 C.ar    
  18 C18            5.5403    -1.3487     0.7114 C.ar    
  19 C19            6.8298    -0.8641     0.8263 C.ar    
  20 C20            7.0875     0.4803     0.6264 C.ar    
  21 F21            6.3074     2.6558     0.1111 F       
  22 C22            1.7126    -0.7060     5.0753 C.3     
  23 C23            1.4322    -1.9654     4.2384 C.3     
  24 C24            1.2410    -1.0273     3.0349 C.3     
  25 C25            7.9568    -1.8016     1.1757 C.3     
  26 F26            8.5079    -2.3262     0.0017 F       
  27 F27            8.9421    -1.1034     1.8820 F       
  28 F28            7.4665    -2.8453     1.9678 F       
  29 H29           -0.3612     1.1741     1.8391 H       
  30 H30           -1.2470    -0.0172    -0.1235 H       
  31 H31            2.7068     2.8801     1.9802 H       
  32 H32            3.2140    -0.1622     3.5436 H       
  33 H33            3.9004     2.6489    -0.3661 H       
  34 H34            3.4967    -0.8728     0.3029 H       
  35 H35            5.3425    -2.3982     0.8722 H       
  36 H36            8.0962     0.8557     0.7169 H       
  37 H37            2.5202    -0.8319     5.7965 H       
  38 H38            0.8175    -0.2647     5.5135 H       
  39 H39            2.2931    -2.6272     4.1437 H       
  40 H40            0.5233    -2.4908     4.5313 H       
  41 H41            0.2168    -0.6739     2.9153 H       
  42 H42            1.6677    -1.4126     2.1089 H       
@<TRIPOS>BOND
   1    1    2 ar
   2    1    6 ar
   3    1   29 1
   4    2    3 ar
   5    2   30 1
   6    3    4 ar
   7    3   12 1
   8    4    5 ar
   9    4   13 1
  10    5    6 ar
  11    5   14 1
  12    6    7 1
  13    7    8 am
  14    7   31 1
  15    8    9 1
  16    8   10 2
  17    8   11 2
  18    9   22 1
  19    9   24 1
  20    9   32 1
  21   14   15 1
  22   14   33 1
  23   15   16 ar
  24   15   17 ar
  25   16   21 1
  26   16   20 ar
  27   17   18 ar
  28   17   34 1
  29   18   19 ar
  30   18   35 1
  31   19   20 ar
  32   19   25 1
  33   20   36 1
  34   22   23 1
  35   22   37 1
  36   22   38 1
  37   23   24 1
  38   23   39 1
  39   23   40 1
  40   24   41 1
  41   24   42 1
  42   25   26 1
  43   25   27 1
  44   25   28 1

#	End of record

