#	Name: ASD03731651
#	Creating user name:	WinNT
#	Creation time:	15. 06. 2019 20:46

#	Modifying user name:	WinNT
#	Modification time:	15. 06. 2019 20:46

#	Program:	/corina/corina34_cracker 3.40 0067  02.08.2006

@<TRIPOS>MOLECULE
ASD03731651
  40   41    0    0    0
SMALL
NO_CHARGES


@<TRIPOS>ATOM
   1 C1            -0.4041     1.1039    -1.9612 C.2     
   2 C2            -0.2825    -0.2741    -1.4507 C.ar    
   3 C3             0.9012    -0.9944    -1.6490 C.ar    
   4 C4             1.0104    -2.2840    -1.1687 C.ar    
   5 C5            -0.0519    -2.8663    -0.4905 C.ar    
   6 C6            -1.2312    -2.1532    -0.2911 C.ar    
   7 C7            -1.3472    -0.8632    -0.7619 C.ar    
   8 O8             0.5248     1.6163    -2.5556 O.2     
   9 N9            -1.5469     1.7935    -1.7739 N.am    
  10 S10           -1.6834     3.3411    -2.3473 S.o2    
  11 O11           -2.9856     3.7483    -1.9502 O.2     
  12 O12           -0.5266     4.0015    -1.8525 O.2     
  13 C13           -1.5937     3.1653    -4.1505 C.3     
  14 F14           -2.2617    -2.7252     0.3692 F       
  15 F15            1.9350    -0.4286    -2.3097 F       
  16 O16            0.0593    -4.1350    -0.0206 O.3     
  17 C17            1.2604    -4.7559    -0.1403 C.ar    
  18 C18            2.2114    -4.6251     0.8648 C.ar    
  19 C19            3.4314    -5.2534     0.7473 C.ar    
  20 C20            3.7124    -6.0234    -0.3847 C.ar    
  21 C21            2.7533    -6.1524    -1.3931 C.ar    
  22 C22            1.5337    -5.5254    -1.2651 C.ar    
  23 C23            3.0510    -6.9810    -2.6161 C.3     
  24 C24            4.4619    -5.1104     1.8375 C.3     
  25 C25            4.9797    -6.6781    -0.5112 C.1     
  26 N26            5.9850    -7.1974    -0.6116 N.1     
  27 H27            1.9232    -2.8407    -1.3211 H       
  28 H28           -2.2608    -0.3097    -0.6031 H       
  29 H29           -2.2893     1.3834    -1.3033 H       
  30 H30           -2.4100     2.5303    -4.4947 H       
  31 H31           -1.6763     4.1475    -4.6159 H       
  32 H32           -0.6408     2.7125    -4.4245 H       
  33 H33            1.9936    -4.0296     1.7390 H       
  34 H34            0.7904    -5.6281    -2.0418 H       
  35 H35            2.7407    -8.0112    -2.4414 H       
  36 H36            2.5066    -6.5774    -3.4698 H       
  37 H37            4.1211    -6.9538    -2.8218 H       
  38 H38            4.3281    -5.9060     2.5705 H       
  39 H39            5.4601    -5.1789     1.4051 H       
  40 H40            4.3428    -4.1431     2.3254 H       
@<TRIPOS>BOND
   1    1    2 1
   2    1    8 2
   3    1    9 am
   4    2    3 ar
   5    2    7 ar
   6    3    4 ar
   7    3   15 1
   8    4    5 ar
   9    4   27 1
  10    5    6 ar
  11    5   16 1
  12    6    7 ar
  13    6   14 1
  14    7   28 1
  15    9   10 am
  16    9   29 1
  17   10   11 2
  18   10   12 2
  19   10   13 1
  20   13   30 1
  21   13   31 1
  22   13   32 1
  23   16   17 1
  24   17   18 ar
  25   17   22 ar
  26   18   19 ar
  27   18   33 1
  28   19   20 ar
  29   19   24 1
  30   20   21 ar
  31   20   25 1
  32   21   22 ar
  33   21   23 1
  34   22   34 1
  35   23   35 1
  36   23   36 1
  37   23   37 1
  38   24   38 1
  39   24   39 1
  40   24   40 1
  41   25   26 3

#	End of record

