#	Name: ASD09610001
#	Creating user name:	WinNT
#	Creation time:	15. 06. 2019 21:22

#	Modifying user name:	WinNT
#	Modification time:	15. 06. 2019 21:22

#	Program:	/corina/corina34_cracker 3.40 0067  02.08.2006

@<TRIPOS>MOLECULE
ASD09610001
  54   54    0    0    0
SMALL
NO_CHARGES


@<TRIPOS>ATOM
   1 C1             0.4303     1.3573    -0.8861 C.2     
   2 N2             0.2905     0.0016    -0.7553 N.pl3   
   3 N3             1.1019     2.0312     0.0024 N.2     
   4 C4             0.8968    -0.6907     0.3846 C.3     
   5 C5            -0.4653    -0.7567    -1.7553 C.3     
   6 C6             0.4798    -1.2188    -2.8663 C.3     
   7 C7             1.1513     3.4012    -0.0683 C.ar    
   8 C8             2.3743     4.0637     0.0432 C.ar    
   9 C9             2.4198     5.4402    -0.0289 C.ar    
  10 C10            1.2511     6.1666    -0.2115 C.ar    
  11 C11            0.0327     5.5113    -0.3223 C.ar    
  12 C12           -0.0203     4.1344    -0.2575 C.ar    
  13 O13            1.3000     7.5234    -0.2815 O.3     
  14 C14            2.5865     8.1333    -0.1594 C.3     
  15 C15            2.4422     9.6530    -0.2621 C.3     
  16 C16            3.8197    10.3061    -0.1314 C.3     
  17 Si17           3.6440    12.1566    -0.2563 Si      
  18 C18            2.5344    12.7686     1.1093 C.3     
  19 C19            5.3212    12.9517    -0.0972 C.3     
  20 C20            2.9006    12.5998    -1.9061 C.3     
  21 C21            3.6436     3.2762     0.2424 C.3     
  22 C22           -1.2332     6.3047    -0.5199 C.3     
  23 F23           -2.3084     5.6178     0.0537 F       
  24 F24           -1.0996     7.5559     0.0915 F       
  25 H25           -0.0129     1.8671    -1.7288 H       
  26 H26            0.1864    -0.7213     1.2108 H       
  27 H27            1.1600    -1.7078     0.0939 H       
  28 H28            1.7950    -0.1583     0.6972 H       
  29 H29           -0.9229    -1.6258    -1.2827 H       
  30 H30           -1.2432    -0.1226    -2.1805 H       
  31 H31            0.9374    -0.3498    -3.3389 H       
  32 H32            1.2577    -1.8530    -2.4411 H       
  33 H33           -0.0826    -1.7830    -3.6103 H       
  34 H34            3.3660     5.9537     0.0573 H       
  35 H35           -0.9683     3.6249    -0.3486 H       
  36 H36            3.0214     7.8740     0.8058 H       
  37 H37            3.2357     7.7752    -0.9585 H       
  38 H38            2.0073     9.9123    -1.2273 H       
  39 H39            1.7930    10.0111     0.5369 H       
  40 H40            4.2546    10.0468     0.8339 H       
  41 H41            4.4688     9.9480    -0.9304 H       
  42 H42            2.9693    12.5093     2.0746 H       
  43 H43            2.4316    13.8513     1.0362 H       
  44 H44            1.5531    12.3034     1.0162 H       
  45 H45            5.9704    12.5936    -0.8962 H       
  46 H46            5.2184    14.0344    -0.1703 H       
  47 H47            5.7561    12.6924     0.8680 H       
  48 H48            1.9193    12.1345    -1.9992 H       
  49 H49            2.7978    13.6824    -1.9792 H       
  50 H50            3.5498    12.2416    -2.7051 H       
  51 H51            4.0737     3.0286    -0.7281 H       
  52 H52            4.3551     3.8724     0.8137 H       
  53 H53            3.4200     2.3581     0.7857 H       
  54 H54           -1.4151     6.4390    -1.5862 H       
@<TRIPOS>BOND
   1    1    2 1
   2    1    3 2
   3    1   25 1
   4    2    4 1
   5    2    5 1
   6    3    7 1
   7    4   26 1
   8    4   27 1
   9    4   28 1
  10    5    6 1
  11    5   29 1
  12    5   30 1
  13    6   31 1
  14    6   32 1
  15    6   33 1
  16    7    8 ar
  17    7   12 ar
  18    8    9 ar
  19    8   21 1
  20    9   10 ar
  21    9   34 1
  22   10   11 ar
  23   10   13 1
  24   11   12 ar
  25   11   22 1
  26   12   35 1
  27   13   14 1
  28   14   15 1
  29   14   36 1
  30   14   37 1
  31   15   16 1
  32   15   38 1
  33   15   39 1
  34   16   17 1
  35   16   40 1
  36   16   41 1
  37   17   18 1
  38   17   19 1
  39   17   20 1
  40   18   42 1
  41   18   43 1
  42   18   44 1
  43   19   45 1
  44   19   46 1
  45   19   47 1
  46   20   48 1
  47   20   49 1
  48   20   50 1
  49   21   51 1
  50   21   52 1
  51   21   53 1
  52   22   23 1
  53   22   24 1
  54   22   54 1

#	End of record

