#	Name: ASD03092952
#	Creating user name:	WinNT
#	Creation time:	15. 06. 2019 20:33

#	Modifying user name:	WinNT
#	Modification time:	15. 06. 2019 20:33

#	Program:	/corina/corina34_cracker 3.40 0067  02.08.2006

@<TRIPOS>MOLECULE
ASD03092952
  50   53    0    0    0
SMALL
NO_CHARGES


@<TRIPOS>ATOM
   1 F1             0.0021    -0.0041     0.0020 F       
   2 C2            -0.0162     1.3468     0.0094 C.ar    
   3 C3            -1.2264     2.0209     0.0304 C.ar    
   4 C4            -1.2499     3.4005     0.0385 C.ar    
   5 C5            -0.0538     4.1159     0.0256 C.ar    
   6 C6             1.1612     3.4334     0.0045 C.ar    
   7 C7             1.1752     2.0537     0.0019 C.ar    
   8 C8            -0.0739     5.5992     0.0338 C.2     
   9 N9            -0.9893     6.3848    -0.5696 N.2     
  10 C10           -0.6926     7.6351    -0.3521 C.2     
  11 N11            0.4329     7.6950     0.4048 N.pl3   
  12 C12            1.1013     8.9122     0.8716 C.3     
  13 H13            1.9885     8.6526     1.4491 H       
  14 C14            1.4936     9.7943    -0.3318 C.3     
  15 C15            0.3280    10.8067    -0.4566 C.3     
  16 C16           -0.0241    11.1065     1.0217 C.3     
  17 H17            0.6682    11.8383     1.4379 H       
  18 C18            0.1368     9.7459     1.7331 C.3     
  19 C19           -1.4433    11.6002     1.1361 C.2     
  20 O20           -2.2531    10.9729     1.7855 O.2     
  21 N21           -1.8127    12.7389     0.5169 N.am    
  22 C22           -3.1923    13.2189     0.6282 C.3     
  23 C23           -3.3442    14.0501     1.9058 C.3     
  24 C24           -4.7665    14.6124     1.9734 C.3     
  25 O25           -5.0250    15.3925     0.8044 O.3     
  26 C26           -4.9440    14.6566    -0.4179 C.3     
  27 C27           -3.5288    14.0961    -0.5816 C.3     
  28 C28            0.8239     6.4091     0.6558 C.2     
  29 Cl29           2.2017     5.9077     1.5853 Cl      
  30 H30           -2.1527     1.4658     0.0400 H       
  31 H31           -2.1937     3.9253     0.0545 H       
  32 H32            2.0905     3.9837    -0.0056 H       
  33 H33            2.1163     1.5240    -0.0100 H       
  34 H34           -1.2510     8.4853    -0.7151 H       
  35 H35            2.4310    10.3142    -0.1342 H       
  36 H36            1.5739     9.1916    -1.2364 H       
  37 H37            0.6559    11.7123    -0.9669 H       
  38 H38           -0.5206    10.3571    -0.9723 H       
  39 H39           -0.8286     9.2449     1.8040 H       
  40 H40            0.5563     9.8917     2.7286 H       
  41 H41           -1.1650    13.2406    -0.0025 H       
  42 H42           -3.8728    12.3680     0.6621 H       
  43 H43           -3.1603    13.4188     2.7751 H       
  44 H44           -2.6280    14.8717     1.8931 H       
  45 H45           -5.4802    13.7902     2.0269 H       
  46 H46           -4.8676    15.2399     2.8589 H       
  47 H47           -5.6600    13.8350    -0.3957 H       
  48 H48           -5.1730    15.3160    -1.2551 H       
  49 H49           -2.8163    14.9186    -0.6445 H       
  50 H50           -3.4770    13.4977    -1.4912 H       
@<TRIPOS>BOND
   1    1    2 1
   2    2    7 ar
   3    2    3 ar
   4    3    4 ar
   5    3   30 1
   6    4    5 ar
   7    4   31 1
   8    5    6 ar
   9    5    8 1
  10    6    7 ar
  11    6   32 1
  12    7   33 1
  13    8   28 2
  14    8    9 1
  15    9   10 2
  16   10   11 1
  17   10   34 1
  18   11   12 1
  19   11   28 1
  20   12   13 1
  21   12   18 1
  22   12   14 1
  23   14   15 1
  24   14   35 1
  25   14   36 1
  26   15   16 1
  27   15   37 1
  28   15   38 1
  29   16   17 1
  30   16   18 1
  31   16   19 1
  32   18   39 1
  33   18   40 1
  34   19   20 2
  35   19   21 am
  36   21   22 1
  37   21   41 1
  38   22   27 1
  39   22   23 1
  40   22   42 1
  41   23   24 1
  42   23   43 1
  43   23   44 1
  44   24   25 1
  45   24   45 1
  46   24   46 1
  47   25   26 1
  48   26   27 1
  49   26   47 1
  50   26   48 1
  51   27   49 1
  52   27   50 1
  53   28   29 1

#	End of record

