#	Name: ASD04690001
#	Creating user name:	WinNT
#	Creation time:	15. 06. 2019 20:52

#	Modifying user name:	WinNT
#	Modification time:	15. 06. 2019 20:52

#	Program:	/corina/corina34_cracker 3.40 0067  02.08.2006

@<TRIPOS>MOLECULE
ASD04690001
  40   40    0    0    0
SMALL
NO_CHARGES


@<TRIPOS>ATOM
   1 C1            -0.0187     1.5258     0.0104 C.3     
   2 C2             0.0021    -0.0041     0.0020 C.3     
   3 C3             1.4167     2.0553    -0.0004 C.3     
   4 C4             2.1567     1.5485     1.2391 C.3     
   5 C5             2.1775     0.0187     1.2307 C.3     
   6 C6             0.7421    -0.5109     1.2415 C.3     
   7 O7            -1.3386    -0.4987     0.0122 O.3     
   8 O8            -0.7098     1.9991    -1.1473 O.3     
   9 O9             2.0856     1.5945    -1.1761 O.3     
  10 O10            3.4973     2.0431     1.2290 O.3     
  11 C11            3.6576     3.3015     1.8869 C.3     
  12 P12            3.5921     3.0559     3.6921 P.3     
  13 O13            4.6797     2.1411     4.1054 O.2     
  14 O14            3.7727     4.4736     4.4335 O.3     
  15 O15            2.1707     2.4165     4.0956 O.3     
  16 O16            2.8463    -0.4422     0.0550 O.3     
  17 O17            0.0732    -0.0501     2.4172 O.3     
  18 C18           -0.9380    -0.9387     2.8967 C.3     
  19 P19           -0.1538    -2.3693     3.7101 P.3     
  20 O20            0.6700    -1.9003     4.8466 O.2     
  21 O21           -1.2931    -3.3705     4.2503 O.3     
  22 O22            0.7818    -3.1420     2.6519 O.3     
  23 H23           -0.5289     1.8773     0.9072 H       
  24 H24            0.5123    -0.3556    -0.8948 H       
  25 H25            1.4019     3.1452     0.0056 H       
  26 H26            1.6465     1.9000     2.1359 H       
  27 H27            2.7046    -0.3424     2.1137 H       
  28 H28            0.7568    -1.6008     1.2356 H       
  29 H29           -1.8677    -0.2163    -0.7464 H       
  30 H30           -0.7617     2.9629    -1.2077 H       
  31 H31            1.6703     1.8788    -2.0019 H       
  32 H32            4.6199     3.7343     1.6138 H       
  33 H33            2.8566     3.9752     1.5826 H       
  34 H34            3.7481     4.4188     5.3986 H       
  35 H35            1.4106     2.9636     3.8543 H       
  36 H36            2.8969    -1.4052    -0.0168 H       
  37 H37           -1.5714    -0.4156     3.6132 H       
  38 H38           -1.5448    -1.2841     2.0597 H       
  39 H39           -0.9474    -4.1562     4.6956 H       
  40 H40            0.3073    -3.4778     1.8792 H       
@<TRIPOS>BOND
   1    1    2 1
   2    1    3 1
   3    1    8 1
   4    1   23 1
   5    2    7 1
   6    2    6 1
   7    2   24 1
   8    3    4 1
   9    3    9 1
  10    3   25 1
  11    4    5 1
  12    4   10 1
  13    4   26 1
  14    5    6 1
  15    5   16 1
  16    5   27 1
  17    6   17 1
  18    6   28 1
  19    7   29 1
  20    8   30 1
  21    9   31 1
  22   10   11 1
  23   11   12 1
  24   11   32 1
  25   11   33 1
  26   12   13 2
  27   12   14 1
  28   12   15 1
  29   14   34 1
  30   15   35 1
  31   16   36 1
  32   17   18 1
  33   18   19 1
  34   18   37 1
  35   18   38 1
  36   19   20 2
  37   19   21 1
  38   19   22 1
  39   21   39 1
  40   22   40 1

#	End of record

