#	Name: ASD05720319
#	Creating user name:	WinNT
#	Creation time:	15. 06. 2019 21:02

#	Modifying user name:	WinNT
#	Modification time:	15. 06. 2019 21:02

#	Program:	/corina/corina34_cracker 3.40 0067  02.08.2006

@<TRIPOS>MOLECULE
ASD05720319
  80   85    0    0    0
SMALL
NO_CHARGES


@<TRIPOS>ATOM
   1 N1             0.0578     1.3041     0.1938 N.am    
   2 C2             0.0313     0.0875    -0.3857 C.2     
   3 O3             1.0573    -0.4039    -0.8146 O.2     
   4 N4            -1.1325    -0.5842    -0.4896 N.am    
   5 C5            -1.1801    -1.7931    -1.1825 C.ar    
   6 C6            -2.1338    -2.7488    -0.8462 C.ar    
   7 C7            -2.1835    -3.9435    -1.5283 C.ar    
   8 C8            -1.2747    -4.1959    -2.5596 C.ar    
   9 C9            -0.3181    -3.2338    -2.8948 C.ar    
  10 C10           -0.2774    -2.0389    -2.2125 C.ar    
  11 C11           -1.3248    -5.4758    -3.2927 C.2     
  12 O12           -1.6638    -6.4925    -2.7184 O.2     
  13 N13           -0.9948    -5.5177    -4.5988 N.am    
  14 C14           -0.9267    -6.7979    -5.3195 C.3     
  15 C15           -1.7622    -6.6814    -6.5988 C.3     
  16 N16           -1.3152    -5.5116    -7.3669 N.3     
  17 C17           -1.5378    -4.2667    -6.6195 C.3     
  18 C18           -0.6991    -4.2838    -5.3426 C.3     
  19 C19           -1.9717    -5.4619    -8.6801 C.3     
  20 C20            1.2771     1.9525     0.4009 C.ar    
  21 C21            1.3528     3.3372     0.2987 C.ar    
  22 C22            2.5544     3.9796     0.5020 C.ar    
  23 C23            3.6967     3.2390     0.8113 C.ar    
  24 C24            3.6175     1.8490     0.9136 C.ar    
  25 C25            2.4120     1.2126     0.7144 C.ar    
  26 C26            6.4655     5.6329     0.5228 C.ar    
  27 N27            7.3585     5.2168     1.4052 N.ar    
  28 C28            7.1262     4.1388     2.1491 C.ar    
  29 C29            5.9101     3.4443     1.9824 C.ar    
  30 C30            4.9888     3.9259     1.0297 C.ar    
  31 N31            5.3088     5.0117     0.3320 N.ar    
  32 N32            7.0518     2.3858     3.5416 N.2     
  33 N33            7.8228     3.4745     3.1155 N.pl3   
  34 C34            5.9279     2.3585     2.8836 C.2     
  35 O35            7.2151     8.1996    -2.5932 O.3     
  36 C36            5.9677     8.3574    -1.9118 C.3     
  37 C37            5.6431     7.0708    -1.1482 C.3     
  38 N38            6.7459     6.7628    -0.2261 N.3     
  39 C39            8.0105     6.6081    -0.9597 C.3     
  40 C40            8.3114     7.8994    -1.7252 C.3     
  41 C41            9.1492     3.8375     3.6208 C.3     
  42 C42            9.0636     4.1185     5.1223 C.3     
  43 C43           10.1228     2.6836     3.3726 C.3     
  44 H44           -0.7704     1.7310     0.4634 H       
  45 H45           -1.9369    -0.2266    -0.0824 H       
  46 H46           -2.8355    -2.5533    -0.0489 H       
  47 H47           -2.9238    -4.6851    -1.2666 H       
  48 H48            0.3859    -3.4259    -3.6910 H       
  49 H49            0.4585    -1.2930    -2.4741 H       
  50 H50            0.1092    -7.0183    -5.5775 H       
  51 H51           -1.3278    -7.5935    -4.6915 H       
  52 H52           -1.6345    -7.5816    -7.1999 H       
  53 H53           -2.8138    -6.5644    -6.3371 H       
  54 H54           -1.2473    -3.4157    -7.2357 H       
  55 H55           -2.5925    -4.1834    -6.3575 H       
  56 H56           -0.9497    -3.4179    -4.7298 H       
  57 H57            0.3591    -4.2578    -5.6028 H       
  58 H58           -3.0514    -5.3991    -8.5444 H       
  59 H59           -1.6228    -4.5864    -9.2277 H       
  60 H60           -1.7279    -6.3632    -9.2425 H       
  61 H61            0.4688     3.9096     0.0595 H       
  62 H62            2.6128     5.0550     0.4219 H       
  63 H63            4.4996     1.2735     1.1524 H       
  64 H64            2.3492     0.1377     0.7977 H       
  65 H65            5.1421     1.6280     3.0070 H       
  66 H66            6.0387     9.1888    -1.2105 H       
  67 H67            5.1795     8.5588    -2.6373 H       
  68 H68            4.7219     7.2064    -0.5815 H       
  69 H69            5.5191     6.2498    -1.8544 H       
  70 H70            8.8175     6.4061    -0.2554 H       
  71 H71            7.9244     5.7798    -1.6630 H       
  72 H72            9.2183     7.7695    -2.3158 H       
  73 H73            8.4506     8.7175    -1.0185 H       
  74 H74            9.5034     4.7293     3.1038 H       
  75 H75            8.7094     3.2267     5.6393 H       
  76 H76           10.0504     4.3886     5.4982 H       
  77 H77            8.3700     4.9405     5.2991 H       
  78 H78           11.1096     2.9537     3.7485 H       
  79 H79            9.7686     1.7918     3.8895 H       
  80 H80           10.1838     2.4834     2.3028 H       
@<TRIPOS>BOND
   1    1    2 am
   2    1   20 1
   3    1   44 1
   4    2    3 2
   5    2    4 am
   6    4    5 1
   7    4   45 1
   8    5    6 ar
   9    5   10 ar
  10    6    7 ar
  11    6   46 1
  12    7    8 ar
  13    7   47 1
  14    8    9 ar
  15    8   11 1
  16    9   10 ar
  17    9   48 1
  18   10   49 1
  19   11   12 2
  20   11   13 am
  21   13   14 1
  22   13   18 1
  23   14   15 1
  24   14   50 1
  25   14   51 1
  26   15   16 1
  27   15   52 1
  28   15   53 1
  29   16   17 1
  30   16   19 1
  31   17   18 1
  32   17   54 1
  33   17   55 1
  34   18   56 1
  35   18   57 1
  36   19   58 1
  37   19   59 1
  38   19   60 1
  39   20   21 ar
  40   20   25 ar
  41   21   22 ar
  42   21   61 1
  43   22   23 ar
  44   22   62 1
  45   23   24 ar
  46   23   30 1
  47   24   25 ar
  48   24   63 1
  49   25   64 1
  50   26   27 ar
  51   26   31 ar
  52   26   38 1
  53   27   28 ar
  54   28   29 ar
  55   28   33 1
  56   29   30 ar
  57   29   34 1
  58   30   31 ar
  59   32   33 1
  60   32   34 2
  61   33   41 1
  62   34   65 1
  63   35   36 1
  64   35   40 1
  65   36   37 1
  66   36   66 1
  67   36   67 1
  68   37   38 1
  69   37   68 1
  70   37   69 1
  71   38   39 1
  72   39   40 1
  73   39   70 1
  74   39   71 1
  75   40   72 1
  76   40   73 1
  77   41   42 1
  78   41   43 1
  79   41   74 1
  80   42   75 1
  81   42   76 1
  82   42   77 1
  83   43   78 1
  84   43   79 1
  85   43   80 1

#	End of record

