#	Name: ASD01140269
#	Creating user name:	WinNT
#	Creation time:	15. 06. 2019 19:00

#	Modifying user name:	WinNT
#	Modification time:	15. 06. 2019 19:00

#	Program:	/corina/corina34_cracker 3.40 0067  02.08.2006

@<TRIPOS>MOLECULE
ASD01140269
  75   81    0    0    0
SMALL
NO_CHARGES


@<TRIPOS>ATOM
   1 C1             0.0006     1.3217    -0.0507 C.ar    
   2 C2             0.0234    -0.0638    -0.0648 C.ar    
   3 C3             1.2239    -0.7370    -0.0689 C.ar    
   4 C4             2.4384    -0.0308    -0.0589 C.ar    
   5 C5             2.4057     1.3649    -0.0687 C.ar    
   6 C6             1.1837     2.0305    -0.0531 C.ar    
   7 C7             3.6787    -0.8076    -0.0075 C.2     
   8 N8             4.8073    -0.5625    -0.6718 N.am    
   9 C9             4.9214     0.5636    -1.6050 C.3     
  10 C10            4.6908     1.8313    -0.8240 C.2     
  11 N11            3.5694     2.1358    -0.1266 N.pl3   
  12 Cl12          -1.4673    -0.9535    -0.0769 Cl      
  13 C13            3.7767     3.3388     0.4771 C.2     
  14 O14            3.6786    -1.7815     0.7204 O.2     
  15 C15            5.5517     2.8755    -0.6768 C.2     
  16 N16            4.9534     3.7829     0.1386 N.2     
  17 C17            6.8852     2.9988    -1.2872 C.2     
  18 O18            7.6343     4.0949    -1.0539 O.3     
  19 O19            7.3109     2.1124    -2.0016 O.2     
  20 O20           11.6737     6.7549    -1.6199 O.3     
  21 C21           12.9039     6.9623    -2.1304 C.2     
  22 C22           13.6350     8.1985    -1.8093 C.2     
  23 O23           13.4093     6.1284    -2.8560 O.2     
  24 N24           13.1955     9.2122    -1.0159 N.2     
  25 C25           14.8786     8.5369    -2.2464 C.2     
  26 N26           15.1637     9.7604    -1.7383 N.pl3   
  27 C27           14.1079    10.1410    -0.9680 C.2     
  28 C28           15.7988     7.7143    -3.1118 C.3     
  29 N29           17.0292     7.4707    -2.3509 N.2     
  30 C30           17.7800     8.4365    -1.9476 C.2     
  31 C31           17.5719     9.8779    -2.1314 C.ar    
  32 C32           16.3258    10.4929    -1.9896 C.ar    
  33 C33           18.6841    10.6639    -2.4580 C.ar    
  34 C34           18.5540    12.0389    -2.6091 C.ar    
  35 C35           17.3074    12.6446    -2.4311 C.ar    
  36 C36           16.2099    11.8744    -2.1242 C.ar    
  37 C37           19.6959    12.8344    -2.9465 C.1     
  38 C38           19.0023     8.0448    -1.2079 C.ar    
  39 C39            8.9391     4.1487    -1.6887 C.3     
  40 C40           11.0117     5.5136    -1.9791 C.3     
  41 C41            9.6368     5.4568    -1.3102 C.3     
  42 C42           20.6321    13.4866    -3.2230 C.1     
  43 C43           19.5930     8.9345    -0.3107 C.ar    
  44 C44           20.7311     8.5637     0.3756 C.ar    
  45 C45           21.2863     7.3125     0.1754 C.ar    
  46 C46           20.7050     6.4256    -0.7132 C.ar    
  47 C47           19.5637     6.7828    -1.4015 C.ar    
  48 C48            5.9629    -1.4388    -0.4647 C.3     
  49 H49           -0.9434     1.8464    -0.0423 H       
  50 H50            1.2323    -1.8169    -0.0794 H       
  51 H51            1.1616     3.1102    -0.0431 H       
  52 H52            5.9178     0.5779    -2.0467 H       
  53 H53            4.1702     0.4710    -2.3893 H       
  54 H54            3.0791     3.8426     1.1297 H       
  55 H55           14.0377    11.0625    -0.4091 H       
  56 H56           15.3232     6.7651    -3.3586 H       
  57 H57           16.0319     8.2602    -4.0260 H       
  58 H58           19.6492    10.1983    -2.5929 H       
  59 H59           17.2061    13.7149    -2.5338 H       
  60 H60           15.2480    12.3456    -1.9858 H       
  61 H61            9.5418     3.3050    -1.3525 H       
  62 H62            8.8189     4.1010    -2.7710 H       
  63 H63           10.8914     5.4659    -3.0614 H       
  64 H64           11.6144     4.6699    -1.6429 H       
  65 H65            9.0341     6.3005    -1.6464 H       
  66 H66            9.7570     5.5045    -0.2279 H       
  67 H67           21.4694    14.0698    -3.4704 H       
  68 H68           19.1607     9.9117    -0.1539 H       
  69 H69           21.1897     9.2519     1.0704 H       
  70 H70           22.1774     7.0269     0.7147 H       
  71 H71           21.1430     5.4502    -0.8653 H       
  72 H72           19.1106     6.0896    -2.0947 H       
  73 H73            5.7052    -2.2161     0.2546 H       
  74 H74            6.2442    -1.8991    -1.4119 H       
  75 H75            6.7992    -0.8532    -0.0829 H       
@<TRIPOS>BOND
   1    1    2 ar
   2    1    6 ar
   3    1   49 1
   4    2    3 ar
   5    2   12 1
   6    3    4 ar
   7    3   50 1
   8    4    5 ar
   9    4    7 1
  10    5    6 ar
  11    5   11 1
  12    6   51 1
  13    7    8 am
  14    7   14 2
  15    8    9 1
  16    8   48 1
  17    9   10 1
  18    9   52 1
  19    9   53 1
  20   10   11 1
  21   10   15 2
  22   11   13 1
  23   13   16 2
  24   13   54 1
  25   15   16 1
  26   15   17 1
  27   17   18 1
  28   17   19 2
  29   18   39 1
  30   20   21 1
  31   20   40 1
  32   21   22 1
  33   21   23 2
  34   22   24 1
  35   22   25 2
  36   24   27 2
  37   25   26 1
  38   25   28 1
  39   26   27 1
  40   26   32 1
  41   27   55 1
  42   28   29 1
  43   28   56 1
  44   28   57 1
  45   29   30 2
  46   30   31 1
  47   30   38 1
  48   31   32 ar
  49   31   33 ar
  50   32   36 ar
  51   33   34 ar
  52   33   58 1
  53   34   35 ar
  54   34   37 1
  55   35   36 ar
  56   35   59 1
  57   36   60 1
  58   37   42 3
  59   38   43 ar
  60   38   47 ar
  61   39   41 1
  62   39   61 1
  63   39   62 1
  64   40   41 1
  65   40   63 1
  66   40   64 1
  67   41   65 1
  68   41   66 1
  69   42   67 1
  70   43   44 ar
  71   43   68 1
  72   44   45 ar
  73   44   69 1
  74   45   46 ar
  75   45   70 1
  76   46   47 ar
  77   46   71 1
  78   47   72 1
  79   48   73 1
  80   48   74 1
  81   48   75 1

#	End of record

