#	Name: ASD03330207
#	Creating user name:	WinNT
#	Creation time:	15. 06. 2019 20:36

#	Modifying user name:	WinNT
#	Modification time:	15. 06. 2019 20:36

#	Program:	/corina/corina34_cracker 3.40 0067  02.08.2006

@<TRIPOS>MOLECULE
ASD03330207
  58   60    0    0    0
SMALL
NO_CHARGES


@<TRIPOS>ATOM
   1 C1             0.4869     1.6575    -3.2622 C.ar    
   2 C2             0.4323     0.5008    -2.3417 C.2     
   3 N3            -0.5793     0.2229    -1.4740 N.pl3   
   4 C4            -0.2466    -0.9210    -0.8129 C.2     
   5 C5             0.9602    -1.3233    -1.2879 C.2     
   6 N6             1.3490    -0.4331    -2.2288 N.2     
   7 C7             1.7088    -2.5180    -0.8594 C.2     
   8 N8             2.9026    -2.8012    -1.4172 N.am    
   9 C9            -0.2599     2.8041    -2.9903 C.ar    
  10 O10            1.2494    -3.2485    -0.0024 O.2     
  11 C11            3.6469    -3.9890    -0.9911 C.3     
  12 C12            3.1562    -5.2071    -1.7762 C.3     
  13 C13            5.1165    -3.7815    -1.2526 C.2     
  14 C14            3.2826    -4.9320    -3.2759 C.3     
  15 N15            6.0313    -4.3181    -0.4209 N.am    
  16 C16            4.0039    -6.4264    -1.4081 C.3     
  17 C17           -1.8159     0.9768    -1.2534 C.3     
  18 C18           -2.8189     0.0751    -0.5251 C.3     
  19 C19           -2.1518    -0.5508     0.7029 C.3     
  20 C20           -1.1022    -1.5720     0.2434 C.3     
  21 C21            1.6913    -5.4809    -1.4296 C.3     
  22 O22            5.4760    -3.1317    -2.2115 O.2     
  23 C23            7.4538    -4.0216    -0.6073 C.3     
  24 C24           -0.2052     3.8812    -3.8533 C.ar    
  25 C25            0.5907     3.8227    -4.9886 C.ar    
  26 C26            1.3331     2.6854    -5.2616 C.ar    
  27 C27            1.2901     1.6074    -4.4022 C.ar    
  28 F28            0.6413     4.8781    -5.8306 F       
  29 F29           -0.9275     4.9926    -3.5920 F       
  30 C30            5.6031    -5.1979     0.6694 C.3     
  31 H31            3.2691    -2.2186    -2.1007 H       
  32 H32           -0.8798     2.8493    -2.1070 H       
  33 H33            3.4873    -4.1549     0.0743 H       
  34 H34            4.3261    -4.7370    -3.5229 H       
  35 H35            2.9329    -5.7998    -3.8352 H       
  36 H36            2.6786    -4.0633    -3.5382 H       
  37 H37            3.8682    -6.6577    -0.3515 H       
  38 H38            3.6926    -7.2803    -2.0098 H       
  39 H39            5.0546    -6.2099    -1.6006 H       
  40 H40           -1.6046     1.8554    -0.6439 H       
  41 H41           -2.2316     1.2859    -2.2124 H       
  42 H42           -3.6770     0.6683    -0.2090 H       
  43 H43           -3.1526    -0.7143    -1.1986 H       
  44 H44           -1.6679     0.2287     1.2913 H       
  45 H45           -2.9053    -1.0517     1.3107 H       
  46 H46           -1.5988    -2.4481    -0.1736 H       
  47 H47           -0.4814    -1.8678     1.0892 H       
  48 H48            1.0874    -4.6122    -1.6918 H       
  49 H49            1.3417    -6.3487    -1.9888 H       
  50 H50            1.6013    -5.6768    -0.3611 H       
  51 H51            7.5773    -3.3555    -1.4612 H       
  52 H52            7.8449    -3.5398     0.2888 H       
  53 H53            7.9976    -4.9488    -0.7881 H       
  54 H54            1.9504     2.6445    -6.1469 H       
  55 H55            1.8695     0.7216    -4.6167 H       
  56 H56            5.6142    -6.2326     0.3271 H       
  57 H57            6.2833    -5.0872     1.5139 H       
  58 H58            4.5932    -4.9283     0.9785 H       
@<TRIPOS>BOND
   1    1    2 1
   2    1    9 ar
   3    1   27 ar
   4    2    3 1
   5    2    6 2
   6    3    4 1
   7    3   17 1
   8    4    5 2
   9    4   20 1
  10    5    6 1
  11    5    7 1
  12    7    8 am
  13    7   10 2
  14    8   11 1
  15    8   31 1
  16    9   24 ar
  17    9   32 1
  18   11   12 1
  19   11   13 1
  20   11   33 1
  21   12   14 1
  22   12   16 1
  23   12   21 1
  24   13   15 am
  25   13   22 2
  26   14   34 1
  27   14   35 1
  28   14   36 1
  29   15   23 1
  30   15   30 1
  31   16   37 1
  32   16   38 1
  33   16   39 1
  34   17   18 1
  35   17   40 1
  36   17   41 1
  37   18   19 1
  38   18   42 1
  39   18   43 1
  40   19   20 1
  41   19   44 1
  42   19   45 1
  43   20   46 1
  44   20   47 1
  45   21   48 1
  46   21   49 1
  47   21   50 1
  48   23   51 1
  49   23   52 1
  50   23   53 1
  51   24   25 ar
  52   24   29 1
  53   25   26 ar
  54   25   28 1
  55   26   27 ar
  56   26   54 1
  57   27   55 1
  58   30   56 1
  59   30   57 1
  60   30   58 1

#	End of record

