#	Name: ASD01140086
#	Creating user name:	WinNT
#	Creation time:	15. 06. 2019 18:59

#	Modifying user name:	WinNT
#	Modification time:	15. 06. 2019 18:59

#	Program:	/corina/corina34_cracker 3.40 0067  02.08.2006

@<TRIPOS>MOLECULE
ASD01140086
  64   67    0    0    0
SMALL
NO_CHARGES


@<TRIPOS>ATOM
   1 C1            -0.3584     3.3720     0.7475 C.3     
   2 C2            -0.7502     1.9067     0.9303 C.3     
   3 C3             0.0332     1.2691     2.0734 C.3     
   4 C4             1.5396     1.4469     1.9112 C.3     
   5 C5             1.8944     2.9265     1.7462 C.3     
   6 C6             1.1515     3.5046     0.5480 C.3     
   7 C7             2.0533     0.6081     0.7455 C.3     
   8 C8             3.5724     0.7801     0.6049 C.3     
   9 C9             3.8353     2.2633     0.3321 C.3     
  10 C10            3.4137     3.0614     1.5648 C.3     
  11 C11            5.2375     2.5502    -0.0831 C.3     
  12 C12            6.0264     3.3745     0.9572 C.3     
  13 C13            5.3391     4.6968     1.1789 C.3     
  14 C14            3.8426     4.5140     1.4694 C.3     
  15 C15            6.1983     1.3765    -0.3229 C.3     
  16 C16            7.5401     2.1426    -0.5301 C.3     
  17 C17            7.4026     3.4677     0.2617 C.3     
  18 C18           -2.2488     1.8464     1.2753 C.3     
  19 C19            1.4951     3.6793     3.0228 C.3     
  20 C20            6.2567     2.6331     2.2716 C.3     
  21 C21            8.4873     3.5751     1.2986 C.2     
  22 C22            8.9021     4.9276     1.8179 C.3     
  23 O23            9.0257     2.5774     1.7147 O.2     
  24 H24            2.0265     1.0842     2.8312 H       
  25 O25           -0.5436     1.1891    -0.2857 O.3     
  26 O26           -3.0061     2.4270     0.2116 O.3     
  27 C27           -4.4179     2.4215     0.4328 C.3     
  28 H28           -0.8636     3.7598    -0.1466 H       
  29 H29           -0.6895     3.9572     1.6008 H       
  30 H30           -0.2974     1.6872     3.0251 H       
  31 H31           -0.1908     0.1929     2.0923 H       
  32 H32            1.4369     2.9759    -0.3624 H       
  33 H33            1.4030     4.5620     0.4343 H       
  34 H34            1.8277    -0.4433     0.9227 H       
  35 H35            1.5873     0.9290    -0.1846 H       
  36 H36            4.0620     0.4815     1.5274 H       
  37 H37            3.9318     0.1830    -0.2290 H       
  38 H38            3.1688     2.5560    -0.5027 H       
  39 H39            3.8429     2.6079     2.4629 H       
  40 H40            5.2045     3.1385    -1.0291 H       
  41 H41            5.8109     5.2184     2.0236 H       
  42 H42            5.4635     5.3303     0.2904 H       
  43 H43            3.2670     5.0112     0.6771 H       
  44 H44            3.6160     5.0338     2.4101 H       
  45 H45            6.2499     0.7014     0.5187 H       
  46 H46            5.9271     0.8433    -1.2356 H       
  47 H47            8.3670     1.5537    -0.1397 H       
  48 H48            7.6845     2.3517    -1.5886 H       
  49 H49            7.4161     4.3206    -0.4088 H       
  50 H50           -2.5492     0.8073     1.4100 H       
  51 H51           -2.4322     2.4000     2.1961 H       
  52 H52            2.0351     3.2637     3.8736 H       
  53 H53            1.7440     4.7350     2.9150 H       
  54 H54            0.4226     3.5737     3.1864 H       
  55 H55            6.9419     1.8020     2.1048 H       
  56 H56            6.6863     3.3168     3.0039 H       
  57 H57            5.3064     2.2513     2.6447 H       
  58 H58            8.3098     5.7015     1.3297 H       
  59 H59            8.7378     4.9694     2.8946 H       
  60 H60            9.9587     5.0902     1.6050 H       
  61 H61           -1.0575     1.5251    -1.0328 H       
  62 H62           -4.6463     2.9870     1.3363 H       
  63 H63           -4.9210     2.8789    -0.4191 H       
  64 H64           -4.7632     1.3943     0.5501 H       
@<TRIPOS>BOND
   1    1    2 1
   2    1    6 1
   3    1   28 1
   4    1   29 1
   5    2    3 1
   6    2   18 1
   7    2   25 1
   8    3    4 1
   9    3   30 1
  10    3   31 1
  11    4    5 1
  12    4    7 1
  13    4   24 1
  14    5    6 1
  15    5   19 1
  16    5   10 1
  17    6   32 1
  18    6   33 1
  19    7    8 1
  20    7   34 1
  21    7   35 1
  22    8    9 1
  23    8   36 1
  24    8   37 1
  25    9   10 1
  26    9   11 1
  27    9   38 1
  28   10   14 1
  29   10   39 1
  30   11   12 1
  31   11   15 1
  32   11   40 1
  33   12   13 1
  34   12   20 1
  35   12   17 1
  36   13   14 1
  37   13   41 1
  38   13   42 1
  39   14   43 1
  40   14   44 1
  41   15   16 1
  42   15   45 1
  43   15   46 1
  44   16   17 1
  45   16   47 1
  46   16   48 1
  47   17   21 1
  48   17   49 1
  49   18   26 1
  50   18   50 1
  51   18   51 1
  52   19   52 1
  53   19   53 1
  54   19   54 1
  55   20   55 1
  56   20   56 1
  57   20   57 1
  58   21   22 1
  59   21   23 2
  60   22   58 1
  61   22   59 1
  62   22   60 1
  63   25   61 1
  64   26   27 1
  65   27   62 1
  66   27   63 1
  67   27   64 1

#	End of record

