#	Name: ASD01811519
#	Creating user name:	WinNT
#	Creation time:	15. 06. 2019 19:26

#	Modifying user name:	WinNT
#	Modification time:	15. 06. 2019 19:26

#	Program:	/corina/corina34_cracker 3.40 0067  02.08.2006

@<TRIPOS>MOLECULE
ASD01811519
  52   55    0    0    0
SMALL
NO_CHARGES


@<TRIPOS>ATOM
   1 C1            -3.7075    -0.0813     1.2069 C.1     
   2 C2            -3.1401     1.2264     1.0699 C.ar    
   3 C3            -1.7604     1.4077     1.1842 C.ar    
   4 C4            -1.2205     2.6701     1.0512 C.ar    
   5 C5            -2.0429     3.7553     0.8055 C.ar    
   6 C6            -3.4110     3.5829     0.6915 C.ar    
   7 C7            -3.9636     2.3250     0.8157 C.ar    
   8 N8            -4.1577    -1.1186     1.3156 N.1     
   9 N9            -1.3348     7.9141     1.1570 N.am    
  10 C10           -1.8566     7.4614    -0.1397 C.3     
  11 C11           -2.4782     6.0725     0.0366 C.3     
  12 C12           -1.4458     5.1315     0.6619 C.3     
  13 C13           -1.0419     5.6585     2.0407 C.3     
  14 C14           -0.4040     7.0428     1.8871 C.3     
  15 F15           -0.3163     5.0660    -0.1610 F       
  16 C16           -1.6988     9.1084     1.6646 C.2     
  17 C17           -1.2325     9.5140     3.0079 C.ar    
  18 C18            0.1219     9.4342     3.3321 C.ar    
  19 C19            0.5515     9.8167     4.5934 C.ar    
  20 C20           -0.3665    10.2779     5.5301 C.ar    
  21 C21           -1.7083    10.3564     5.2088 C.ar    
  22 C22           -2.1453     9.9833     3.9537 C.ar    
  23 O23           -2.4105     9.8521     1.0181 O.2     
  24 C24            0.1031    10.6931     6.9006 C.3     
  25 C25           -0.2044    12.1615     7.2385 C.3     
  26 C26           -0.5567    11.6796     8.6557 C.3     
  27 C27           -0.8714    10.3117     8.0274 C.3     
  28 N28            1.9068     9.7384     4.9234 N.pl3   
  29 H29           -1.1174     0.5616     1.3767 H       
  30 H30           -0.1535     2.8118     1.1394 H       
  31 H31           -4.0472     4.4344     0.5000 H       
  32 H32           -5.0311     2.1911     0.7217 H       
  33 H33           -2.6159     8.1596    -0.4920 H       
  34 H34           -1.0426     7.4083    -0.8627 H       
  35 H35           -3.3482     6.1435     0.6895 H       
  36 H36           -2.7828     5.6842    -0.9353 H       
  37 H37           -1.9254     5.7334     2.6747 H       
  38 H38           -0.3242     4.9756     2.4953 H       
  39 H39            0.5285     6.9556     1.3294 H       
  40 H40           -0.2049     7.4647     2.8722 H       
  41 H41            0.8333     9.0753     2.6030 H       
  42 H42           -2.4169    10.7151     5.9407 H       
  43 H43           -3.1941    10.0504     3.7051 H       
  44 H44            1.1358    10.4065     7.0990 H       
  45 H45            0.6707    12.8103     7.2028 H       
  46 H46           -1.0555    12.5665     6.6909 H       
  47 H47            0.2954    11.6623     9.3353 H       
  48 H48           -1.4289    12.1757     9.0814 H       
  49 H49           -1.9048    10.2111     7.6956 H       
  50 H50           -0.5347     9.4672     8.6287 H       
  51 H51            2.5473     9.4163     4.2699 H       
  52 H52            2.2074    10.0060     5.8060 H       
@<TRIPOS>BOND
   1    1    2 1
   2    1    8 3
   3    2    3 ar
   4    2    7 ar
   5    3    4 ar
   6    3   29 1
   7    4    5 ar
   8    4   30 1
   9    5    6 ar
  10    5   12 1
  11    6    7 ar
  12    6   31 1
  13    7   32 1
  14    9   10 1
  15    9   14 1
  16    9   16 am
  17   10   11 1
  18   10   33 1
  19   10   34 1
  20   11   12 1
  21   11   35 1
  22   11   36 1
  23   12   13 1
  24   12   15 1
  25   13   14 1
  26   13   37 1
  27   13   38 1
  28   14   39 1
  29   14   40 1
  30   16   17 1
  31   16   23 2
  32   17   18 ar
  33   17   22 ar
  34   18   19 ar
  35   18   41 1
  36   19   20 ar
  37   19   28 1
  38   20   21 ar
  39   20   24 1
  40   21   22 ar
  41   21   42 1
  42   22   43 1
  43   24   25 1
  44   24   27 1
  45   24   44 1
  46   25   26 1
  47   25   45 1
  48   25   46 1
  49   26   27 1
  50   26   47 1
  51   26   48 1
  52   27   49 1
  53   27   50 1
  54   28   51 1
  55   28   52 1

#	End of record

