#	Name: ASD01811995
#	Creating user name:	WinNT
#	Creation time:	15. 06. 2019 19:27

#	Modifying user name:	WinNT
#	Modification time:	15. 06. 2019 19:27

#	Program:	/corina/corina34_cracker 3.40 0067  02.08.2006

@<TRIPOS>MOLECULE
ASD01811995
  38   40    0    0    0
SMALL
NO_CHARGES


@<TRIPOS>ATOM
   1 C1             0.3836     0.3374     0.5503 C.ar    
   2 C2             0.6781    -1.0044     0.3672 C.ar    
   3 C3             1.9712    -1.3960     0.1025 C.ar    
   4 C4             2.9998    -0.4456     0.0156 C.ar    
   5 C5             2.7005     0.9033     0.2009 C.ar    
   6 C6             1.3832     1.2818     0.4679 C.ar    
   7 C7             4.3569    -0.9341    -0.2728 C.2     
   8 C8             4.8662     0.8819    -1.7618 C.3     
   9 C9             4.6430     1.9705    -0.7481 C.2     
  10 N10            3.6511     1.9094     0.1374 N.am    
  11 S11            5.6226     3.2342    -0.7341 S.2     
  12 C12            4.7920    -2.1849     0.3949 C.ar    
  13 N13            3.9623    -2.8150     1.2164 N.ar    
  14 C14            4.3093    -3.9273     1.8287 C.ar    
  15 C15            5.5620    -4.4839     1.6358 C.ar    
  16 C16            6.4606    -3.8576     0.7850 C.ar    
  17 C17            6.0664    -2.6915     0.1498 C.ar    
  18 Cl18          -0.5839    -2.1919     0.4723 Cl      
  19 C19            3.5939     0.6823    -2.5879 C.3     
  20 C20            3.3071     1.9490    -3.3968 C.3     
  21 N21            5.1938    -0.3587    -1.0603 N.2     
  22 C22            3.7848    -0.4992    -3.5410 C.3     
  23 H23           -0.6319     0.6437     0.7534 H       
  24 H24            2.1956    -2.4429    -0.0390 H       
  25 H25            1.1455     2.3256     0.6107 H       
  26 H26            5.6892     1.1595    -2.4203 H       
  27 H27            3.5886     2.6253     0.7890 H       
  28 H28            3.6072    -4.4122     2.4908 H       
  29 H29            5.8371    -5.3967     2.1432 H       
  30 H30            7.4440    -4.2719     0.6184 H       
  31 H31            6.7405    -2.1778    -0.5196 H       
  32 H32            2.7559     0.4795    -1.9211 H       
  33 H33            3.1711     2.7907    -2.7177 H       
  34 H34            4.1452     2.1518    -4.0636 H       
  35 H35            2.4007     1.8068    -3.9853 H       
  36 H36            3.8951    -1.4173    -2.9640 H       
  37 H37            2.9164    -0.5828    -4.1945 H       
  38 H38            4.6789    -0.3391    -4.1436 H       
@<TRIPOS>BOND
   1    1    2 ar
   2    1    6 ar
   3    1   23 1
   4    2    3 ar
   5    2   18 1
   6    3    4 ar
   7    3   24 1
   8    4    5 ar
   9    4    7 1
  10    5    6 ar
  11    5   10 1
  12    6   25 1
  13    7   12 1
  14    7   21 2
  15    8    9 1
  16    8   19 1
  17    8   21 1
  18    8   26 1
  19    9   10 am
  20    9   11 2
  21   10   27 1
  22   12   13 ar
  23   12   17 ar
  24   13   14 ar
  25   14   15 ar
  26   14   28 1
  27   15   16 ar
  28   15   29 1
  29   16   17 ar
  30   16   30 1
  31   17   31 1
  32   19   20 1
  33   19   22 1
  34   19   32 1
  35   20   33 1
  36   20   34 1
  37   20   35 1
  38   22   36 1
  39   22   37 1
  40   22   38 1

#	End of record

