#	Name: ASD01910270
#	Creating user name:	WinNT
#	Creation time:	15. 06. 2019 19:55

#	Modifying user name:	WinNT
#	Modification time:	15. 06. 2019 19:55

#	Program:	/corina/corina34_cracker 3.40 0067  02.08.2006

@<TRIPOS>MOLECULE
ASD01910270
  46   49    0    0    0
SMALL
NO_CHARGES


@<TRIPOS>ATOM
   1 C1            -0.1291     1.6566     0.1995 C.2     
   2 C2             1.1259     2.4877     0.1261 C.3     
   3 N3             2.1067     1.9811     1.0953 N.3     
   4 C4             3.3201     2.8091     1.1079 C.3     
   5 C5             3.9996     2.7345    -0.2636 C.3     
   6 N6             3.0130     3.0926    -1.2939 N.am    
   7 C7             1.7155     2.3999    -1.2856 C.3     
   8 C8             3.2903     4.0308    -2.2209 C.2     
   9 O9             4.3247     4.6659    -2.1524 O.2     
  10 O10           -0.1958     0.3228     0.2553 O.3     
  11 N11           -1.3540    -0.0334     0.3072 N.2     
  12 C12           -2.1454     1.0076     0.2911 C.2     
  13 N13           -1.3591     2.1058     0.2263 N.2     
  14 C14            2.3374     4.2875    -3.3201 C.ar    
  15 C15            2.1027     5.5942    -3.7533 C.ar    
  16 C16            1.2125     5.8281    -4.7793 C.ar    
  17 C17            0.5506     4.7688    -5.3811 C.ar    
  18 C18            0.7795     3.4695    -4.9547 C.ar    
  19 C19            1.6723     3.2238    -3.9336 C.ar    
  20 F20           -0.3210     5.0035    -6.3864 F       
  21 C21           -3.6283     0.9877     0.3400 C.ar    
  22 C22           -4.3089    -0.2263     0.4114 C.ar    
  23 C23           -5.6876    -0.2403     0.4572 C.ar    
  24 C24           -6.3957     0.9505     0.4319 C.ar    
  25 C25           -5.7230     2.1598     0.3609 C.ar    
  26 C26           -4.3443     2.1831     0.3205 C.ar    
  27 F27           -7.7459     0.9323     0.4760 F       
  28 C28            1.5194     1.8874     2.4385 C.3     
  29 H29            0.8886     3.5260     0.3576 H       
  30 H30            3.0526     3.8431     1.3255 H       
  31 H31            4.0036     2.4411     1.8730 H       
  32 H32            4.8345     3.4345    -0.2971 H       
  33 H33            4.3605     1.7210    -0.4387 H       
  34 H34            1.8569     1.3543    -1.5590 H       
  35 H35            1.0403     2.8786    -1.9948 H       
  36 H36            2.6176     6.4201    -3.2850 H       
  37 H37            1.0301     6.8383    -5.1148 H       
  38 H38            0.2610     2.6480    -5.4266 H       
  39 H39            1.8501     2.2113    -3.6024 H       
  40 H40           -3.7577    -1.1549     0.4305 H       
  41 H41           -6.2158    -1.1807     0.5126 H       
  42 H42           -6.2788     3.0856     0.3410 H       
  43 H43           -3.8207     3.1261     0.2656 H       
  44 H44            0.6674     1.2080     2.4159 H       
  45 H45            2.2668     1.5098     3.1363 H       
  46 H46            1.1883     2.8749     2.7600 H       
@<TRIPOS>BOND
   1    1   10 1
   2    1    2 1
   3    1   13 2
   4    2    3 1
   5    2    7 1
   6    2   29 1
   7    3    4 1
   8    3   28 1
   9    4    5 1
  10    4   30 1
  11    4   31 1
  12    5    6 1
  13    5   32 1
  14    5   33 1
  15    6    7 1
  16    6    8 am
  17    7   34 1
  18    7   35 1
  19    8    9 2
  20    8   14 1
  21   10   11 1
  22   11   12 2
  23   12   13 1
  24   12   21 1
  25   14   15 ar
  26   14   19 ar
  27   15   16 ar
  28   15   36 1
  29   16   17 ar
  30   16   37 1
  31   17   18 ar
  32   17   20 1
  33   18   19 ar
  34   18   38 1
  35   19   39 1
  36   21   22 ar
  37   21   26 ar
  38   22   23 ar
  39   22   40 1
  40   23   24 ar
  41   23   41 1
  42   24   25 ar
  43   24   27 1
  44   25   26 ar
  45   25   42 1
  46   26   43 1
  47   28   44 1
  48   28   45 1
  49   28   46 1

#	End of record

