#	Name: ASD03320211
#	Creating user name:	WinNT
#	Creation time:	15. 06. 2019 20:36

#	Modifying user name:	WinNT
#	Modification time:	15. 06. 2019 20:36

#	Program:	/corina/corina34_cracker 3.40 0067  02.08.2006

@<TRIPOS>MOLECULE
ASD03320211
  47   49    0    0    0
SMALL
NO_CHARGES


@<TRIPOS>ATOM
   1 C1            -0.0141     1.5756    -0.1188 C.ar    
   2 C2            -0.2686     0.2031    -0.1100 C.ar    
   3 N3            -1.4980    -0.2548     0.0087 N.ar    
   4 C4            -2.5352     0.5500     0.1240 C.ar    
   5 C5            -2.3709     1.9347     0.1250 C.ar    
   6 C6            -1.0862     2.4646     0.0071 C.ar    
   7 C7             1.3684     2.0815    -0.2529 C.2     
   8 O8             1.5796     3.2787    -0.2594 O.2     
   9 N9             2.3947     1.2155    -0.3679 N.am    
  10 C10            3.6919     1.6930    -0.5919 C.ar    
  11 C11           -3.5460     2.8318     0.2554 C.ar    
  12 C12            4.1042     2.8839    -0.0088 C.ar    
  13 C13            5.3835     3.3541    -0.2301 C.ar    
  14 C14            6.2567     2.6373    -1.0353 C.ar    
  15 C15            5.8456     1.4475    -1.6182 C.ar    
  16 C16            4.5686     0.9729    -1.3927 C.ar    
  17 O17            7.5160     3.1014    -1.2535 O.3     
  18 C18            8.3617     2.3125    -2.0928 C.3     
  19 F19            7.7805     2.1925    -3.3597 F       
  20 F20            9.6109     2.9313    -2.2096 F       
  21 F21            8.5217     1.0414    -1.5309 F       
  22 C22           -3.6622     3.7101     1.3355 C.ar    
  23 N23           -4.7253     4.4919     1.4132 N.ar    
  24 C24           -5.6662     4.4503     0.4907 C.ar    
  25 N25           -5.5958     3.6363    -0.5438 N.ar    
  26 C26           -4.5637     2.8253    -0.7016 C.ar    
  27 C27           -3.9180    -0.0343     0.2561 C.3     
  28 C28           -3.8244    -1.5608     0.3022 C.3     
  29 C29           -4.5663     0.4760     1.5446 C.3     
  30 O30           -4.7111     0.3606    -0.8650 O.3     
  31 H31            0.5527    -0.4921    -0.2020 H       
  32 H32           -0.9247     3.5325     0.0045 H       
  33 H33            2.2347     0.2616    -0.2956 H       
  34 H34            3.4243     3.4425     0.6175 H       
  35 H35            5.7043     4.2803     0.2233 H       
  36 H36            6.5258     0.8902    -2.2451 H       
  37 H37            4.2487     0.0466    -1.8466 H       
  38 H38           -2.8956     3.7496     2.0953 H       
  39 H39           -6.5213     5.1031     0.5856 H       
  40 H40           -4.5129     2.1611    -1.5517 H       
  41 H41           -3.2194    -1.8620     1.1574 H       
  42 H42           -4.8245    -1.9834     0.3978 H       
  43 H43           -3.3625    -1.9244    -0.6157 H       
  44 H44           -4.6330     1.5635     1.5118 H       
  45 H45           -5.5665     0.0533     1.6402 H       
  46 H46           -3.9614     0.1747     2.3998 H       
  47 H47           -4.4036     0.0039    -1.7096 H       
@<TRIPOS>BOND
   1    1    2 ar
   2    1    7 1
   3    1    6 ar
   4    2    3 ar
   5    2   31 1
   6    3    4 ar
   7    4    5 ar
   8    4   27 1
   9    5    6 ar
  10    5   11 1
  11    6   32 1
  12    7    8 2
  13    7    9 am
  14    9   10 1
  15    9   33 1
  16   10   12 ar
  17   10   16 ar
  18   11   22 ar
  19   11   26 ar
  20   12   13 ar
  21   12   34 1
  22   13   14 ar
  23   13   35 1
  24   14   15 ar
  25   14   17 1
  26   15   16 ar
  27   15   36 1
  28   16   37 1
  29   17   18 1
  30   18   19 1
  31   18   20 1
  32   18   21 1
  33   22   23 ar
  34   22   38 1
  35   23   24 ar
  36   24   25 ar
  37   24   39 1
  38   25   26 ar
  39   26   40 1
  40   27   28 1
  41   27   29 1
  42   27   30 1
  43   28   41 1
  44   28   42 1
  45   28   43 1
  46   29   44 1
  47   29   45 1
  48   29   46 1
  49   30   47 1

#	End of record

