#	Name: ASD01916123
#	Creating user name:	WinNT
#	Creation time:	15. 06. 2019 20:06

#	Modifying user name:	WinNT
#	Modification time:	15. 06. 2019 20:06

#	Program:	/corina/corina34_cracker 3.40 0067  02.08.2006

@<TRIPOS>MOLECULE
ASD01916123
  44   47    0    0    0
SMALL
NO_CHARGES


@<TRIPOS>ATOM
   1 C1             0.0819     1.3905    -0.0607 C.ar    
   2 C2             0.0865     0.0090    -0.0602 C.ar    
   3 C3             1.2910    -0.6794    -0.0577 C.ar    
   4 C4             2.4880     0.0218    -0.0558 C.ar    
   5 C5             2.4780     1.4032    -0.0563 C.ar    
   6 C6             1.2763     2.0870    -0.0587 C.ar    
   7 O7             1.2982    -2.0384    -0.0568 O.3     
   8 C8             2.5748    -2.6804    -0.0542 C.3     
   9 C9             2.3853    -4.1754    -0.0535 C.2     
  10 C10            1.1560    -4.8470    -0.0551 C.2     
  11 N11            3.3419    -5.0706    -0.0570 N.2     
  12 N12            2.7531    -6.3379    -0.0593 N.pl3   
  13 C13            1.4106    -6.1691    -0.0530 C.2     
  14 C14            3.4354    -7.6348    -0.0761 C.3     
  15 C15            2.4618    -8.7240     0.3869 C.3     
  16 N16            1.1725    -8.5442    -0.2979 N.am    
  17 C17            0.4159    -7.3056    -0.0395 C.3     
  18 C18            0.6971    -9.4825    -1.1404 C.2     
  19 C19           -0.6569    -9.3421    -1.7143 C.ar    
  20 O20            1.3825   -10.4445    -1.4281 O.2     
  21 C21           -1.6832    -8.7745    -0.9569 C.ar    
  22 C22           -2.9455    -8.6449    -1.4965 C.ar    
  23 C23           -3.1977    -9.0770    -2.7887 C.ar    
  24 C24           -2.1813    -9.6424    -3.5476 C.ar    
  25 C25           -0.9130    -9.7713    -3.0185 C.ar    
  26 F26           -2.4329   -10.0619    -4.8069 F       
  27 F27           -4.4366    -8.9482    -3.3119 F       
  28 H28           -0.8555     1.9269    -0.0672 H       
  29 H29           -0.8467    -0.5346    -0.0614 H       
  30 H30            3.4270    -0.5119    -0.0535 H       
  31 H31            3.4097     1.9495    -0.0544 H       
  32 H32            1.2706     3.1670    -0.0591 H       
  33 H33            3.1317    -2.3852    -0.9435 H       
  34 H34            3.1288    -2.3839     0.8365 H       
  35 H35            0.1790    -4.3866    -0.0574 H       
  36 H36            3.7734    -7.8552    -1.0886 H       
  37 H37            4.2930    -7.6036     0.5960 H       
  38 H38            2.8699    -9.7048     0.1429 H       
  39 H39            2.3155    -8.6475     1.4643 H       
  40 H40           -0.0673    -7.3617     0.9360 H       
  41 H41           -0.3322    -7.1575    -0.8182 H       
  42 H42           -1.4888    -8.4378     0.0507 H       
  43 H43           -3.7394    -8.2058    -0.9106 H       
  44 H44           -0.1225   -10.2107    -3.6088 H       
@<TRIPOS>BOND
   1    1    2 ar
   2    1    6 ar
   3    1   28 1
   4    2    3 ar
   5    2   29 1
   6    3    4 ar
   7    3    7 1
   8    4    5 ar
   9    4   30 1
  10    5    6 ar
  11    5   31 1
  12    6   32 1
  13    7    8 1
  14    8    9 1
  15    8   33 1
  16    8   34 1
  17    9   10 1
  18    9   11 2
  19   10   13 2
  20   10   35 1
  21   11   12 1
  22   12   13 1
  23   12   14 1
  24   13   17 1
  25   14   15 1
  26   14   36 1
  27   14   37 1
  28   15   16 1
  29   15   38 1
  30   15   39 1
  31   16   17 1
  32   16   18 am
  33   17   40 1
  34   17   41 1
  35   18   19 1
  36   18   20 2
  37   19   21 ar
  38   19   25 ar
  39   21   22 ar
  40   21   42 1
  41   22   23 ar
  42   22   43 1
  43   23   24 ar
  44   23   27 1
  45   24   25 ar
  46   24   26 1
  47   25   44 1

#	End of record

