#	Name: ASD01918434
#	Creating user name:	WinNT
#	Creation time:	15. 06. 2019 20:11

#	Modifying user name:	WinNT
#	Modification time:	15. 06. 2019 20:11

#	Program:	/corina/corina34_cracker 3.40 0067  02.08.2006

@<TRIPOS>MOLECULE
ASD01918434
  59   63    0    0    0
SMALL
NO_CHARGES


@<TRIPOS>ATOM
   1 C1            -0.4454     1.5156    -2.0629 C.3     
   2 C2            -0.3501     0.0392    -1.7764 C.2     
   3 N3            -0.3960    -0.8898    -2.6670 N.2     
   4 C4            -0.2924    -2.1472    -2.2520 C.2     
   5 C5            -0.2948    -3.3466    -3.1994 C.3     
   6 C6             1.0881    -4.0056    -3.1112 C.3     
   7 N7             1.2007    -4.7678    -1.8783 N.am    
   8 C8             1.2926    -4.2009    -0.5409 C.3     
   9 C9            -0.0560    -3.5648    -0.1631 C.3     
  10 C10           -0.1694    -2.2572    -0.9300 C.2     
  11 S11           -0.1578    -0.6470    -0.2220 S.3     
  12 C12            1.2214    -6.1114    -1.9825 C.2     
  13 O13            1.1475    -6.6363    -3.0734 O.2     
  14 C14            1.3364    -6.9616    -0.7435 C.3     
  15 N15            1.3373    -8.3771    -1.1209 N.pl3   
  16 N16            0.2050    -9.1742    -1.3313 N.2     
  17 C17            0.6041   -10.3865    -1.6552 C.2     
  18 C18            2.0091   -10.4016    -1.6619 C.2     
  19 C19            2.4406    -9.1494    -1.3350 C.2     
  20 C20            3.8497    -8.7098    -1.2292 C.ar    
  21 C21            4.1734    -7.3589    -1.3557 C.ar    
  22 C22            5.4890    -6.9553    -1.2556 C.ar    
  23 C23            6.4862    -7.8874    -1.0306 C.ar    
  24 C24            6.1718    -9.2287    -0.9046 C.ar    
  25 C25            4.8592    -9.6441    -0.9967 C.ar    
  26 C26           -0.2790   -11.5397    -1.9605 C.ar    
  27 C27            0.2749   -12.7765    -2.2848 C.ar    
  28 C28           -0.5481   -13.8463    -2.5681 C.ar    
  29 C29           -1.9272   -13.6919    -2.5304 C.ar    
  30 O30           -2.7357   -14.7477    -2.8100 O.3     
  31 C31           -4.1450   -14.5186    -2.7526 C.3     
  32 F32           -4.4983   -14.1056    -1.4635 F       
  33 F33           -4.4936   -13.5242    -3.6728 F       
  34 C34           -2.4818   -12.4611    -2.2072 C.ar    
  35 C35           -1.6637   -11.3891    -1.9178 C.ar    
  36 H36            0.5527     1.9169    -2.2383 H       
  37 H37           -1.0617     1.6750    -2.9477 H       
  38 H38           -0.8963     2.0229    -1.2099 H       
  39 H39           -1.0636    -4.0570    -2.8954 H       
  40 H40           -0.4812    -3.0120    -4.2199 H       
  41 H41            1.2256    -4.6725    -3.9624 H       
  42 H42            1.8580    -3.2342    -3.1308 H       
  43 H43            1.5356    -4.9887     0.1721 H       
  44 H44            2.0721    -3.4393    -0.5215 H       
  45 H45           -0.8718    -4.2311    -0.4433 H       
  46 H46           -0.0867    -3.3699     0.9089 H       
  47 H47            2.2647    -6.7234    -0.2243 H       
  48 H48            0.4906    -6.7614    -0.0858 H       
  49 H49            2.6354   -11.2515    -1.8891 H       
  50 H50            3.3958    -6.6304    -1.5321 H       
  51 H51            5.7408    -5.9096    -1.3533 H       
  52 H52            7.5146    -7.5666    -0.9533 H       
  53 H53            6.9548    -9.9516    -0.7294 H       
  54 H54            4.6144   -10.6909    -0.8933 H       
  55 H55            1.3478   -12.8971    -2.3147 H       
  56 H56           -0.1193   -14.8051    -2.8199 H       
  57 H57           -4.6732   -15.4404    -2.9964 H       
  58 H58           -3.5551   -12.3438    -2.1786 H       
  59 H59           -2.0958   -10.4329    -1.6620 H       
@<TRIPOS>BOND
   1    1    2 1
   2    1   36 1
   3    1   37 1
   4    1   38 1
   5    2   11 1
   6    2    3 2
   7    3    4 1
   8    4   10 2
   9    4    5 1
  10    5    6 1
  11    5   39 1
  12    5   40 1
  13    6    7 1
  14    6   41 1
  15    6   42 1
  16    7    8 1
  17    7   12 am
  18    8    9 1
  19    8   43 1
  20    8   44 1
  21    9   10 1
  22    9   45 1
  23    9   46 1
  24   10   11 1
  25   12   13 2
  26   12   14 1
  27   14   15 1
  28   14   47 1
  29   14   48 1
  30   15   19 1
  31   15   16 1
  32   16   17 2
  33   17   18 1
  34   17   26 1
  35   18   19 2
  36   18   49 1
  37   19   20 1
  38   20   25 ar
  39   20   21 ar
  40   21   22 ar
  41   21   50 1
  42   22   23 ar
  43   22   51 1
  44   23   24 ar
  45   23   52 1
  46   24   25 ar
  47   24   53 1
  48   25   54 1
  49   26   35 ar
  50   26   27 ar
  51   27   28 ar
  52   27   55 1
  53   28   29 ar
  54   28   56 1
  55   29   30 1
  56   29   34 ar
  57   30   31 1
  58   31   32 1
  59   31   33 1
  60   31   57 1
  61   34   35 ar
  62   34   58 1
  63   35   59 1

#	End of record

