#	Name: ASD03430779
#	Creating user name:	WinNT
#	Creation time:	15. 06. 2019 20:41

#	Modifying user name:	WinNT
#	Modification time:	15. 06. 2019 20:41

#	Program:	/corina/corina34_cracker 3.40 0067  02.08.2006

@<TRIPOS>MOLECULE
ASD03430779
  38   42    0    0    0
SMALL
NO_CHARGES


@<TRIPOS>ATOM
   1 C1            -0.0167     1.3829     0.0096 C.ar    
   2 C2             0.0021    -0.0041     0.0020 C.ar    
   3 C3             1.2028    -0.6793    -0.0160 C.ar    
   4 C4             2.4081     0.0153    -0.0256 C.ar    
   5 C5             2.3870     1.4075    -0.0164 C.ar    
   6 C6             1.1813     2.0885     0.0020 C.ar    
   7 C7             1.5675    -2.1374    -0.0301 C.3     
   8 C8             3.0720    -2.1635    -0.0491 C.2     
   9 C9             0.2054    -3.8757     0.6510 C.ar    
  10 C10            1.0130    -2.8646     1.1626 C.ar    
  11 C11            0.9857    -2.8462    -1.2236 C.2     
  12 N12            0.2107    -3.8380    -0.7449 N.am    
  13 O13            1.1773    -2.5762    -2.3904 O.2     
  14 C14            1.1617    -2.7054     2.5221 C.ar    
  15 C15            0.5053    -3.5550     3.3945 C.ar    
  16 C16           -0.2998    -4.5637     2.8975 C.ar    
  17 C17           -0.4515    -4.7269     1.5363 C.ar    
  18 N18            3.4820    -0.8806    -0.0447 N.am    
  19 O19           -1.2115     2.0356     0.0189 O.3     
  20 C20           -1.1883     3.4163     0.3972 C.3     
  21 C21           -0.0363     4.1001    -0.3514 C.3     
  22 O22            1.1854     3.4502     0.0150 O.3     
  23 C23            4.8886    -0.4714    -0.0588 C.3     
  24 O24            3.7787    -3.1491    -0.0645 O.2     
  25 H25           -0.9264    -0.5557     0.0106 H       
  26 H26            3.3155     1.9590    -0.0230 H       
  27 H27           -0.2865    -4.4546    -1.3049 H       
  28 H28            1.7914    -1.9172     2.9076 H       
  29 H29            0.6215    -3.4311     4.4611 H       
  30 H30           -0.8121    -5.2271     3.5786 H       
  31 H31           -1.0819    -5.5170     1.1559 H       
  32 H32           -2.1333     3.8874     0.1270 H       
  33 H33           -1.0293     3.5002     1.4723 H       
  34 H34           -0.1919     4.0102    -1.4265 H       
  35 H35            0.0093     5.1530    -0.0729 H       
  36 H36            5.2498    -0.3769     0.9652 H       
  37 H37            5.4798    -1.2208    -0.5850 H       
  38 H38            4.9827     0.4882    -0.5673 H       
@<TRIPOS>BOND
   1    1    2 ar
   2    1    6 ar
   3    1   19 1
   4    2    3 ar
   5    2   25 1
   6    3    4 ar
   7    3    7 1
   8    4    5 ar
   9    4   18 1
  10    5    6 ar
  11    5   26 1
  12    6   22 1
  13    7    8 1
  14    7   10 1
  15    7   11 1
  16    8   24 2
  17    8   18 am
  18    9   10 ar
  19    9   12 1
  20    9   17 ar
  21   10   14 ar
  22   11   12 am
  23   11   13 2
  24   12   27 1
  25   14   15 ar
  26   14   28 1
  27   15   16 ar
  28   15   29 1
  29   16   17 ar
  30   16   30 1
  31   17   31 1
  32   18   23 1
  33   19   20 1
  34   20   21 1
  35   20   32 1
  36   20   33 1
  37   21   22 1
  38   21   34 1
  39   21   35 1
  40   23   36 1
  41   23   37 1
  42   23   38 1

#	End of record

