#	Name: ASD03331874
#	Creating user name:	WinNT
#	Creation time:	15. 06. 2019 20:40

#	Modifying user name:	WinNT
#	Modification time:	15. 06. 2019 20:40

#	Program:	/corina/corina34_cracker 3.40 0067  02.08.2006

@<TRIPOS>MOLECULE
ASD03331874
  48   50    0    0    0
SMALL
NO_CHARGES


@<TRIPOS>ATOM
   1 C1             8.3947    -0.3256     1.1309 C.ar    
   2 C2             8.8977     0.1089     2.3606 C.ar    
   3 C3             8.3452     1.2338     2.9797 C.ar    
   4 C4             7.3081     1.9097     2.3768 C.ar    
   5 C5             6.8102     1.4744     1.1530 C.ar    
   6 C6             7.3575     0.3553     0.5339 C.ar    
   7 N7             5.7589     2.1616     0.5452 N.am    
   8 C8             5.6828     3.5034     0.6468 C.2     
   9 N9             4.7210     4.1759    -0.0158 N.am    
  10 O10            6.4819     4.1071     1.3361 O.2     
  11 C11            4.5813     5.5567     0.1651 C.ar    
  12 C12            3.1754     7.4970     0.3385 C.ar    
  13 C13            3.3176     6.1337     0.1601 C.ar    
  14 C14            5.7039     6.3484     0.3552 C.ar    
  15 C15            5.5598     7.7216     0.5352 C.ar    
  16 C16            4.2880     8.2928     0.5234 C.ar    
  17 C17            6.7561     8.5744     0.7395 C.ar    
  18 N18            7.9569     8.0123     0.7479 N.ar    
  19 C19            9.0479     8.7406     0.9270 C.ar    
  20 C20            8.9279    10.1057     1.1072 C.ar    
  21 C21            7.6499    10.6699     1.0935 C.ar    
  22 N22            6.5985     9.8803     0.9037 N.ar    
  23 C23            9.9760    -0.5969     2.9848 C.1     
  24 N24           10.8314    -1.1569     3.4799 N.1     
  25 N25            7.4818    12.0339     1.2700 N.pl3   
  26 C26            5.6871    12.6144     2.8268 C.3     
  27 C27            6.1338    12.5998     1.3635 C.3     
  28 C28            8.6522    12.9101     1.3632 C.3     
  29 H29            8.8221    -1.1916     0.6475 H       
  30 H30            8.7311     1.5721     3.9300 H       
  31 H31            6.8805     2.7786     2.8547 H       
  32 H32            6.9686     0.0204    -0.4164 H       
  33 H33            5.0827     1.6736     0.0496 H       
  34 H34            4.1257     3.7030    -0.6181 H       
  35 H35            2.1909     7.9408     0.3334 H       
  36 H36            2.4438     5.5154     0.0160 H       
  37 H37            6.6869     5.9012     0.3638 H       
  38 H38            4.1731     9.3577     0.6618 H       
  39 H39           10.0214     8.2729     0.9325 H       
  40 H40            9.8021    10.7221     1.2555 H       
  41 H41            4.6841    13.0354     2.8963 H       
  42 H42            5.6813    11.5959     3.2151 H       
  43 H43            6.3777    13.2222     3.4114 H       
  44 H44            6.1395    13.6182     0.9752 H       
  45 H45            5.4432    11.9919     0.7789 H       
  46 H46            8.9263    13.2574     0.3671 H       
  47 H47            8.4154    13.7668     1.9943 H       
  48 H48            9.4856    12.3582     1.7978 H       
@<TRIPOS>BOND
   1    1    2 ar
   2    1    6 ar
   3    1   29 1
   4    2    3 ar
   5    2   23 1
   6    3    4 ar
   7    3   30 1
   8    4    5 ar
   9    4   31 1
  10    5    6 ar
  11    5    7 1
  12    6   32 1
  13    7    8 am
  14    7   33 1
  15    8    9 am
  16    8   10 2
  17    9   11 1
  18    9   34 1
  19   11   14 ar
  20   11   13 ar
  21   12   13 ar
  22   12   16 ar
  23   12   35 1
  24   13   36 1
  25   14   15 ar
  26   14   37 1
  27   15   16 ar
  28   15   17 1
  29   16   38 1
  30   17   18 ar
  31   17   22 ar
  32   18   19 ar
  33   19   20 ar
  34   19   39 1
  35   20   21 ar
  36   20   40 1
  37   21   22 ar
  38   21   25 1
  39   23   24 3
  40   25   28 1
  41   25   27 1
  42   26   27 1
  43   26   41 1
  44   26   42 1
  45   26   43 1
  46   27   44 1
  47   27   45 1
  48   28   46 1
  49   28   47 1
  50   28   48 1

#	End of record

