#	Name: ASD01901100
#	Creating user name:	WinNT
#	Creation time:	15. 06. 2019 19:53

#	Modifying user name:	WinNT
#	Modification time:	15. 06. 2019 19:53

#	Program:	/corina/corina34_cracker 3.40 0067  02.08.2006

@<TRIPOS>MOLECULE
ASD01901100
  26   27    0    0    0
SMALL
NO_CHARGES


@<TRIPOS>ATOM
   1 C1            -0.0184     1.5028     0.0103 C.2     
   2 C2             0.0021    -0.0041     0.0020 C.3     
   3 O3            -1.3386    -0.4987     0.0122 O.3     
   4 C4            -0.3936    -2.6877    -0.0086 C.ar    
   5 C5            -1.4983    -1.8484     0.0064 C.ar    
   6 C6            -2.7717    -2.4080     0.0161 C.ar    
   7 C7            -2.8841    -3.7892     0.0102 C.ar    
   8 C8            -1.7366    -4.5595    -0.0050 C.ar    
   9 N9            -0.5438    -3.9972    -0.0138 N.ar    
  10 C10            2.4725     1.5850    -0.0130 C.ar    
  11 C11            1.2453     2.2555     0.0023 C.ar    
  12 C12            1.2403     3.6588     0.0094 C.ar    
  13 C13            2.4551     4.3180     0.0009 C.ar    
  14 C14            3.6277     3.5799    -0.0142 C.ar    
  15 N15            3.6028     2.2592    -0.0206 N.ar    
  16 Cl16           5.1552     4.4048    -0.0255 Cl      
  17 O17           -1.0766     2.0947     0.0185 O.2     
  18 H18            0.5123    -0.3556    -0.8948 H       
  19 H19            0.5293    -0.3651     0.8851 H       
  20 H20            0.5996    -2.2636    -0.0207 H       
  21 H21           -3.6513    -1.7815     0.0282 H       
  22 H22           -3.8569    -4.2583     0.0176 H       
  23 H23           -1.8180    -5.6365    -0.0093 H       
  24 H24            2.4929     0.5052    -0.0142 H       
  25 H25            0.3113     4.2094     0.0209 H       
  26 H26            2.4900     5.3975     0.0056 H       
@<TRIPOS>BOND
   1    1    2 1
   2    1   11 1
   3    1   17 2
   4    2    3 1
   5    2   18 1
   6    2   19 1
   7    3    5 1
   8    4    5 ar
   9    4    9 ar
  10    4   20 1
  11    5    6 ar
  12    6    7 ar
  13    6   21 1
  14    7    8 ar
  15    7   22 1
  16    8    9 ar
  17    8   23 1
  18   10   11 ar
  19   10   15 ar
  20   10   24 1
  21   11   12 ar
  22   12   13 ar
  23   12   25 1
  24   13   14 ar
  25   13   26 1
  26   14   15 ar
  27   14   16 1

#	End of record

