#	Name: ASD01901309
#	Creating user name:	WinNT
#	Creation time:	15. 06. 2019 19:53

#	Modifying user name:	WinNT
#	Modification time:	15. 06. 2019 19:53

#	Program:	/corina/corina34_cracker 3.40 0067  02.08.2006

@<TRIPOS>MOLECULE
ASD01901309
  42   45    0    0    0
SMALL
NO_CHARGES


@<TRIPOS>ATOM
   1 C1            -0.0167     1.3809     0.0096 C.ar    
   2 C2             0.0021    -0.0041     0.0020 C.ar    
   3 C3             1.2078    -0.6803    -0.0131 C.ar    
   4 C4             2.4006     0.0201    -0.0208 C.ar    
   5 C5             2.3961     1.4009    -0.0133 C.ar    
   6 C6             1.1873     2.0916     0.0020 C.ar    
   7 C7             1.1770     3.5754     0.0095 C.2     
   8 N8             0.8653     5.5937     1.1945 N.2     
   9 C9             0.8737     4.2832     1.1930 C.2     
  10 C10            1.4664     4.2764    -1.1277 C.2     
  11 C11            1.1428     6.2897     0.0818 C.2     
  12 N12            1.1958     7.5931    -0.1539 N.2     
  13 N13            1.4479     5.6393    -1.0860 N.pl3   
  14 C14            1.6862     6.5986    -2.0330 C.2     
  15 C15            1.5243     7.7970    -1.4330 C.2     
  16 C16            1.6866     9.1409    -2.0954 C.3     
  17 O17            2.0410     8.9559    -3.4674 O.3     
  18 C18            2.2261    10.0768    -4.2133 C.ar    
  19 C19            2.0754    11.3289    -3.6352 C.ar    
  20 C20            2.5717     9.9708    -5.5527 C.ar    
  21 C21            2.7593    11.1117    -6.3088 C.ar    
  22 C22            2.6033    12.3584    -5.7315 C.ar    
  23 C23            2.2641    12.4667    -4.3955 C.ar    
  24 O24           -1.2011     2.0466     0.0189 O.3     
  25 C25           -2.3905     1.2545     0.0202 C.3     
  26 H26           -0.9261    -0.5562     0.0083 H       
  27 H27            1.2185    -1.7602    -0.0187 H       
  28 H28            3.3387    -0.5148    -0.0322 H       
  29 H29            3.3293     1.9445    -0.0189 H       
  30 H30            0.6474     3.7427     2.1002 H       
  31 H31            1.7063     3.7589    -2.0448 H       
  32 H32            1.9540     6.4287    -3.0654 H       
  33 H33            0.7483     9.6921    -2.0337 H       
  34 H34            2.4720     9.7027    -1.5899 H       
  35 H35            1.8105    11.4140    -2.5916 H       
  36 H36            2.6943     8.9972    -6.0038 H       
  37 H37            3.0283    11.0297    -7.3515 H       
  38 H38            2.7508    13.2491    -6.3242 H       
  39 H39            2.1469    13.4416    -3.9459 H       
  40 H40           -3.2625     1.9084     0.0279 H       
  41 H41           -2.4123     0.6303    -0.8731 H       
  42 H42           -2.4039     0.6206     0.9068 H       
@<TRIPOS>BOND
   1    1    2 ar
   2    1    6 ar
   3    1   24 1
   4    2    3 ar
   5    2   26 1
   6    3    4 ar
   7    3   27 1
   8    4    5 ar
   9    4   28 1
  10    5    6 ar
  11    5   29 1
  12    6    7 1
  13    7   10 2
  14    7    9 1
  15    8    9 2
  16    8   11 1
  17    9   30 1
  18   10   13 1
  19   10   31 1
  20   11   13 1
  21   11   12 2
  22   12   15 1
  23   13   14 1
  24   14   15 2
  25   14   32 1
  26   15   16 1
  27   16   17 1
  28   16   33 1
  29   16   34 1
  30   17   18 1
  31   18   20 ar
  32   18   19 ar
  33   19   23 ar
  34   19   35 1
  35   20   21 ar
  36   20   36 1
  37   21   22 ar
  38   21   37 1
  39   22   23 ar
  40   22   38 1
  41   23   39 1
  42   24   25 1
  43   25   40 1
  44   25   41 1
  45   25   42 1

#	End of record

