#	Name: ASD01900461
#	Creating user name:	WinNT
#	Creation time:	15. 06. 2019 19:52

#	Modifying user name:	WinNT
#	Modification time:	15. 06. 2019 19:52

#	Program:	/corina/corina34_cracker 3.40 0067  02.08.2006

@<TRIPOS>MOLECULE
ASD01900461
  28   30    0    0    0
SMALL
NO_CHARGES


@<TRIPOS>ATOM
   1 C1            -0.2841     3.6015     2.3131 C.ar    
   2 C2            -0.4284     3.5383     3.7122 C.ar    
   3 C3             0.7034     3.6689     4.5161 C.ar    
   4 C4             1.9249     3.8558     3.8993 C.ar    
   5 C5             1.9934     3.9082     2.5132 C.ar    
   6 N6             0.9173     3.7830     1.7702 N.ar    
   7 N7            -2.4578     3.2898     2.7589 N.2     
   8 N8            -1.7604     3.3478     3.9699 N.pl3   
   9 C9            -1.6302     3.4402     1.7583 C.2     
  10 S10           -2.0559     3.4374     0.0485 S.3     
  11 C11           -3.7747     3.0502     0.0686 C.ar    
  12 C12           -4.7154     4.0631     0.2146 C.ar    
  13 C13           -6.4741     2.4421     0.1007 C.ar    
  14 C14           -4.1934     1.7321    -0.0672 C.ar    
  15 C15           -6.0613     3.7560     0.2300 C.ar    
  16 C16           -5.5414     1.4325    -0.0510 C.ar    
  17 C17           -7.0819     4.8535     0.3882 C.3     
  18 H18            0.6269     3.6254     5.5925 H       
  19 H19            2.8218     3.9611     4.4916 H       
  20 H20            2.9513     4.0545     2.0363 H       
  21 H21           -2.1565     3.2657     4.8515 H       
  22 H22           -4.3937     5.0891     0.3163 H       
  23 H23           -7.5276     2.2047     0.1137 H       
  24 H24           -3.4655     0.9431    -0.1857 H       
  25 H25           -5.8673     0.4077    -0.1513 H       
  26 H26           -7.3652     5.2306    -0.5944 H       
  27 H27           -7.9633     4.4597     0.8943 H       
  28 H28           -6.6552     5.6639     0.9792 H       
@<TRIPOS>BOND
   1    1    2 ar
   2    1    6 ar
   3    1    9 1
   4    2    3 ar
   5    2    8 1
   6    3    4 ar
   7    3   18 1
   8    4    5 ar
   9    4   19 1
  10    5    6 ar
  11    5   20 1
  12    7    8 1
  13    7    9 2
  14    8   21 1
  15    9   10 1
  16   10   11 1
  17   11   12 ar
  18   11   14 ar
  19   12   15 ar
  20   12   22 1
  21   13   15 ar
  22   13   16 ar
  23   13   23 1
  24   14   16 ar
  25   14   24 1
  26   15   17 1
  27   16   25 1
  28   17   26 1
  29   17   27 1
  30   17   28 1

#	End of record

