#	Name: ASD01208023
#	Creating user name:	WinNT
#	Creation time:	15. 06. 2019 19:09

#	Modifying user name:	WinNT
#	Modification time:	15. 06. 2019 19:09

#	Program:	/corina/corina34_cracker 3.40 0067  02.08.2006

@<TRIPOS>MOLECULE
ASD01208023
  59   62    0    0    0
SMALL
NO_CHARGES


@<TRIPOS>ATOM
   1 C1            -0.0842     1.4340     0.0277 C.ar    
   2 C2             0.0186     0.0511    -0.0130 C.ar    
   3 C3            -1.1244    -0.7352     0.0271 C.ar    
   4 C4            -2.3731    -0.1417     0.1075 C.ar    
   5 C5            -2.4810     1.2493     0.1487 C.ar    
   6 C6            -1.3287     2.0358     0.1139 C.ar    
   7 C7            -3.8112     1.8871     0.2346 C.2     
   8 C8            -4.0510     3.2307     0.2810 C.2     
   9 N9            -5.0129     1.2312     0.2752 N.pl3   
  10 C10           -6.0172     2.1657     0.3536 C.2     
  11 C11           -5.4337     3.4144     0.3582 C.2     
  12 O12            1.0383     2.1992    -0.0114 O.3     
  13 C13            0.8562     3.6144    -0.0906 C.3     
  14 C14            2.0903     4.2523    -0.7317 C.3     
  15 O15            3.2214     4.0637     0.1210 O.3     
  16 C16            0.6611     4.1829     1.3164 C.3     
  17 O17           -1.0182    -2.0894    -0.0130 O.3     
  18 C18           -1.4873    -2.7338    -1.1136 C.ar    
  19 C19           -1.9384    -2.0060    -2.2055 C.ar    
  20 C20           -1.5108    -4.1207    -1.1496 C.ar    
  21 C21           -1.9878    -4.7732    -2.2698 C.ar    
  22 C22           -2.4412    -4.0457    -3.3547 C.ar    
  23 C23           -2.4144    -2.6636    -3.3232 C.ar    
  24 S24           -3.0479    -4.8812    -4.7824 S.o2    
  25 C25           -4.8223    -5.0868    -4.4667 C.3     
  26 O26           -2.8336    -3.9615    -5.8442 O.2     
  27 O27           -2.3882    -6.1396    -4.7588 O.2     
  28 C28           -7.4584     1.8838     0.4174 C.2     
  29 N29           -8.0228     0.6954     0.4104 N.2     
  30 N30           -9.3002     0.8328     0.4792 N.2     
  31 C31           -9.6012     2.1001     0.5323 C.2     
  32 O32           -8.4499     2.7952     0.4999 O.3     
  33 C33          -10.9888     2.6815     0.6200 C.3     
  34 C34            4.4329     4.6252    -0.3879 C.3     
  35 H35            0.9908    -0.4149    -0.0765 H       
  36 H36           -3.2621    -0.7542     0.1380 H       
  37 H37           -1.4077     3.1124     0.1456 H       
  38 H38           -3.3052     4.0116     0.2620 H       
  39 H39           -5.1344     0.2691     0.2524 H       
  40 H40           -5.9507     4.3611     0.4116 H       
  41 H41           -0.0227     3.8343    -0.6965 H       
  42 H42            2.2811     3.7840    -1.6973 H       
  43 H43            1.9158     5.3189    -0.8734 H       
  44 H44            0.5222     5.2624     1.2561 H       
  45 H45           -0.2181     3.7285     1.7732 H       
  46 H46            1.5400     3.9630     1.9223 H       
  47 H47           -1.9176    -0.9265    -2.1814 H       
  48 H48           -1.1562    -4.6894    -0.3028 H       
  49 H49           -2.0063    -5.8527    -2.2984 H       
  50 H50           -2.7694    -2.0976    -4.1718 H       
  51 H51           -5.2848    -4.1078    -4.3410 H       
  52 H52           -5.2841    -5.6012    -5.3095 H       
  53 H53           -4.9643    -5.6748    -3.5600 H       
  54 H54          -11.2711     2.7914     1.6670 H       
  55 H55          -11.0051     3.6574     0.1349 H       
  56 H56          -11.6936     2.0161     0.1215 H       
  57 H57            5.2434     4.4398     0.3169 H       
  58 H58            4.6724     4.1646    -1.3463 H       
  59 H59            4.3071     5.6995    -0.5224 H       
@<TRIPOS>BOND
   1    1    2 ar
   2    1   12 1
   3    1    6 ar
   4    2    3 ar
   5    2   35 1
   6    3    4 ar
   7    3   17 1
   8    4    5 ar
   9    4   36 1
  10    5    6 ar
  11    5    7 1
  12    6   37 1
  13    7    8 2
  14    7    9 1
  15    8   11 1
  16    8   38 1
  17    9   10 1
  18    9   39 1
  19   10   11 2
  20   10   28 1
  21   11   40 1
  22   12   13 1
  23   13   14 1
  24   13   16 1
  25   13   41 1
  26   14   15 1
  27   14   42 1
  28   14   43 1
  29   15   34 1
  30   16   44 1
  31   16   45 1
  32   16   46 1
  33   17   18 1
  34   18   19 ar
  35   18   20 ar
  36   19   23 ar
  37   19   47 1
  38   20   21 ar
  39   20   48 1
  40   21   22 ar
  41   21   49 1
  42   22   23 ar
  43   22   24 1
  44   23   50 1
  45   24   25 1
  46   24   26 2
  47   24   27 2
  48   25   51 1
  49   25   52 1
  50   25   53 1
  51   28   29 2
  52   28   32 1
  53   29   30 1
  54   30   31 2
  55   31   32 1
  56   31   33 1
  57   33   54 1
  58   33   55 1
  59   33   56 1
  60   34   57 1
  61   34   58 1
  62   34   59 1

#	End of record

