#	Name: ASD01901600
#	Creating user name:	WinNT
#	Creation time:	15. 06. 2019 19:54

#	Modifying user name:	WinNT
#	Modification time:	15. 06. 2019 19:54

#	Program:	/corina/corina34_cracker 3.40 0067  02.08.2006

@<TRIPOS>MOLECULE
ASD01901600
  45   49    0    0    0
SMALL
NO_CHARGES


@<TRIPOS>ATOM
   1 F1            -0.7284    -1.0225     2.0299 F       
   2 C2            -0.7654     0.3536     1.7809 C.3     
   3 F3            -1.7620     0.7138     0.8676 F       
   4 C4            -0.7580     1.2111     3.0574 C.3     
   5 C5             0.7773     1.1831     2.9730 C.3     
   6 C6             0.6115     0.9589     1.4606 C.3     
   7 N7             1.4070     2.4619     3.3112 N.am    
   8 C8             2.6740     2.4886     3.7699 C.2     
   9 O9             3.2941     1.4519     3.9030 O.2     
  10 C10            3.3100     3.7803     4.1115 C.ar    
  11 N11            2.6773     4.9159     3.8709 N.ar    
  12 C12            3.1969     6.0965     4.1555 C.ar    
  13 C13            4.4331     6.2260     4.7219 C.ar    
  14 C14            5.1727     5.0647     5.0100 C.ar    
  15 C15            6.4463     5.1179     5.5909 C.ar    
  16 C16            7.1204     3.9421     5.8491 C.ar    
  17 N17            8.3889     3.9863     6.4272 N.pl3   
  18 C18            9.3178     2.9797     6.1516 C.2     
  19 N19            9.1678     2.0031     5.2962 N.2     
  20 N20           10.3062     1.1915     5.2911 N.pl3   
  21 H21           10.4310     0.4040     4.7387 H       
  22 C22           11.2168     1.6815     6.1870 C.ar    
  23 N23           12.4308     1.2950     6.5605 N.ar    
  24 C24           13.1141     1.9590     7.4674 C.ar    
  25 C25           12.5999     3.0939     8.0775 C.ar    
  26 C26           11.3507     3.5420     7.7329 C.ar    
  27 C27           10.6385     2.8302     6.7632 C.ar    
  28 C28            6.5436     2.7043     5.5369 C.ar    
  29 C29            5.3078     2.6296     4.9725 C.ar    
  30 C30            4.5938     3.8048     4.7016 C.ar    
  31 H31           -1.1849     2.2043     2.9187 H       
  32 H32           -1.1566     0.6962     3.9316 H       
  33 H33            1.2278     0.3377     3.4929 H       
  34 H34            1.3185     0.2405     1.0457 H       
  35 H35            0.5590     1.8833     0.8854 H       
  36 H36            0.9121     3.2893     3.2049 H       
  37 H37            2.6270     6.9866     3.9333 H       
  38 H38            4.8358     7.2031     4.9443 H       
  39 H39            6.8959     6.0693     5.8337 H       
  40 H40            8.6262     4.7159     7.0207 H       
  41 H41           14.0988     1.6122     7.7440 H       
  42 H42           13.1803     3.6215     8.8200 H       
  43 H43           10.9302     4.4229     8.1949 H       
  44 H44            7.0881     1.7956     5.7471 H       
  45 H45            4.8769     1.6676     4.7374 H       
@<TRIPOS>BOND
   1    1    2 1
   2    2    6 1
   3    2    3 1
   4    2    4 1
   5    4    5 1
   6    4   31 1
   7    4   32 1
   8    5    6 1
   9    5    7 1
  10    5   33 1
  11    6   34 1
  12    6   35 1
  13    7    8 am
  14    7   36 1
  15    8    9 2
  16    8   10 1
  17   10   30 ar
  18   10   11 ar
  19   11   12 ar
  20   12   13 ar
  21   12   37 1
  22   13   14 ar
  23   13   38 1
  24   14   30 ar
  25   14   15 ar
  26   15   16 ar
  27   15   39 1
  28   16   17 1
  29   16   28 ar
  30   17   18 1
  31   17   40 1
  32   18   27 1
  33   18   19 2
  34   19   20 1
  35   20   21 1
  36   20   22 1
  37   22   27 ar
  38   22   23 ar
  39   23   24 ar
  40   24   25 ar
  41   24   41 1
  42   25   26 ar
  43   25   42 1
  44   26   27 ar
  45   26   43 1
  46   28   29 ar
  47   28   44 1
  48   29   30 ar
  49   29   45 1

#	End of record

