#	Name: ASD05720295
#	Creating user name:	WinNT
#	Creation time:	15. 06. 2019 21:02

#	Modifying user name:	WinNT
#	Modification time:	15. 06. 2019 21:02

#	Program:	/corina/corina34_cracker 3.40 0067  02.08.2006

@<TRIPOS>MOLECULE
ASD05720295
  75   79    0    0    0
SMALL
NO_CHARGES


@<TRIPOS>ATOM
   1 C1             0.5120     1.0236     1.1166 C.2     
   2 N2             0.4123    -0.2391     0.6809 N.am    
   3 C3             1.6581    -0.6134    -0.0048 C.3     
   4 C4             2.5298     0.6534     0.0955 C.3     
   5 N5             1.6825     1.6070     0.8271 N.am    
   6 O6            -0.3809     1.5905     1.7159 O.2     
   7 C7             1.3817    -0.9606    -1.4691 C.3     
   8 C8             0.5223    -2.2244    -1.5401 C.3     
   9 C9             0.6397     0.1989    -2.1368 C.3     
  10 C10           -1.6780    -3.1431     0.6610 C.2     
  11 N11           -0.6242    -2.3358     0.5053 N.2     
  12 C12           -0.6920    -1.0636     0.8500 C.2     
  13 C13           -1.8850    -0.5415     1.3902 C.2     
  14 C14           -2.9530    -1.3557     1.5494 C.2     
  15 N15           -2.8524    -2.6690     1.1827 N.pl3   
  16 N16           -3.7641    -3.7299     1.2250 N.2     
  17 C17           -3.1921    -4.8110     0.7551 C.2     
  18 C18           -1.8793    -4.5010     0.3794 C.2     
  19 C19           -0.8891    -5.4334    -0.2044 C.ar    
  20 C20           -0.6500    -6.6675     0.4024 C.ar    
  21 C21            0.2729    -7.5356    -0.1423 C.ar    
  22 C22            0.9675    -7.1787    -1.3009 C.ar    
  23 C23            0.7275    -5.9455    -1.9058 C.ar    
  24 C24           -0.1982    -5.0809    -1.3652 C.ar    
  25 N25            3.4786    -9.0253    -3.1614 N.pl3   
  26 N26            2.6742    -7.8902    -2.9696 N.2     
  27 C27            1.9603    -8.1112    -1.8869 C.2     
  28 N28            2.2798    -9.3187    -1.4012 N.2     
  29 C29            3.1888    -9.8736    -2.1586 C.2     
  30 F30            0.5055    -8.7301     0.4442 F       
  31 C31            2.0589     2.9774     1.1829 C.3     
  32 N32            2.8557     3.9877     5.2589 N.3     
  33 C33            3.8616     4.4010     4.2722 C.3     
  34 C34            3.2405     4.3905     2.8735 C.3     
  35 C35            2.7354     2.9805     2.5552 C.3     
  36 C36            1.7254     2.5552     3.6246 C.3     
  37 C37            2.3904     2.6188     5.0015 C.3     
  38 C38            3.3751     4.1186     6.6268 C.3     
  39 C39            2.2339     3.9220     7.6267 C.3     
  40 H40            2.1383    -1.4495     0.5035 H       
  41 H41            3.4428     0.4464     0.6537 H       
  42 H42            2.7657     1.0352    -0.8978 H       
  43 H43            2.3257    -1.1335    -1.9859 H       
  44 H44            0.5093    -2.5978    -2.5641 H       
  45 H45            0.9403    -2.9855    -0.8812 H       
  46 H46           -0.4947    -1.9904    -1.2257 H       
  47 H47            1.2519     1.0993    -2.0862 H       
  48 H48            0.4428    -0.0484    -3.1800 H       
  49 H49           -0.3043     0.3719    -1.6200 H       
  50 H50           -1.9453     0.4987     1.6744 H       
  51 H51           -3.8748    -0.9730     1.9620 H       
  52 H52           -3.6580    -5.7815     0.6683 H       
  53 H53           -1.1872    -6.9422     1.2981 H       
  54 H54            1.2649    -5.6699    -2.8011 H       
  55 H55           -0.3866    -4.1279    -1.8370 H       
  56 H56            4.1152    -9.1707    -3.8787 H       
  57 H57            3.6314   -10.8468    -2.0057 H       
  58 H58            2.7494     3.3700     0.4365 H       
  59 H59            1.1664     3.6022     1.2164 H       
  60 H60            4.2094     5.4069     4.5076 H       
  61 H61            4.7038     3.7097     4.3007 H       
  62 H62            2.4068     5.0919     2.8403 H       
  63 H63            3.9917     4.6823     2.1396 H       
  64 H64            3.5751     2.2856     2.5490 H       
  65 H65            0.8679     3.2276     3.6032 H       
  66 H66            1.3942     1.5356     3.4273 H       
  67 H67            3.2396     1.9359     5.0266 H       
  68 H68            1.6697     2.3303     5.7666 H       
  69 H69            4.1423     3.3634     6.7979 H       
  70 H70            3.8065     5.1110     6.7582 H       
  71 H71            1.4668     4.6772     7.4555 H       
  72 H72            1.8026     2.9297     7.4953 H       
  73 H73            2.6194     4.0192     8.6416 H       
  74 Cl74           9.7038    10.4069    13.6416 Cl      
  75 H75            9.7038    11.7769    13.6416 H       
@<TRIPOS>BOND
   1    1    2 am
   2    1    5 am
   3    1    6 2
   4    2    3 1
   5    2   12 1
   6    3    4 1
   7    3    7 1
   8    3   40 1
   9    4    5 1
  10    4   41 1
  11    4   42 1
  12    5   31 1
  13    7    8 1
  14    7    9 1
  15    7   43 1
  16    8   44 1
  17    8   45 1
  18    8   46 1
  19    9   47 1
  20    9   48 1
  21    9   49 1
  22   10   11 1
  23   10   15 1
  24   10   18 2
  25   11   12 2
  26   12   13 1
  27   13   14 2
  28   13   50 1
  29   14   15 1
  30   14   51 1
  31   15   16 1
  32   16   17 2
  33   17   18 1
  34   17   52 1
  35   18   19 1
  36   19   20 ar
  37   19   24 ar
  38   20   21 ar
  39   20   53 1
  40   21   22 ar
  41   21   30 1
  42   22   23 ar
  43   22   27 1
  44   23   24 ar
  45   23   54 1
  46   24   55 1
  47   25   26 1
  48   25   29 1
  49   25   56 1
  50   26   27 2
  51   27   28 1
  52   28   29 2
  53   29   57 1
  54   31   35 1
  55   31   58 1
  56   31   59 1
  57   32   33 1
  58   32   37 1
  59   32   38 1
  60   33   34 1
  61   33   60 1
  62   33   61 1
  63   34   35 1
  64   34   62 1
  65   34   63 1
  66   35   36 1
  67   35   64 1
  68   36   37 1
  69   36   65 1
  70   36   66 1
  71   37   67 1
  72   37   68 1
  73   38   39 1
  74   38   69 1
  75   38   70 1
  76   39   71 1
  77   39   72 1
  78   39   73 1
  79   74   75 1

#	End of record

