#	Name: ASD02500326
#	Creating user name:	WinNT
#	Creation time:	15. 06. 2019 20:22

#	Modifying user name:	WinNT
#	Modification time:	15. 06. 2019 20:22

#	Program:	/corina/corina34_cracker 3.40 0067  02.08.2006

@<TRIPOS>MOLECULE
ASD02500326
  58   62    0    0    0
SMALL
NO_CHARGES


@<TRIPOS>ATOM
   1 N1            -3.5473     5.4453    -0.0208 N.ar    
   2 C2            -4.7192     6.0124    -0.1733 C.ar    
   3 C3            -5.7893     5.7228     0.6708 C.ar    
   4 C4            -5.6311     4.8265     1.6891 C.ar    
   5 C5            -4.3713     4.2191     1.8496 C.ar    
   6 C6            -4.1332     3.2887     2.8736 C.ar    
   7 C7            -2.9005     2.7234     2.9959 C.ar    
   8 C8            -1.8711     3.0564     2.1182 C.ar    
   9 C9            -2.0669     3.9544     1.1144 C.ar    
  10 C10           -3.3257     4.5594     0.9556 C.ar    
  11 S11           -0.7473     4.3578     0.0187 S.o2    
  12 O12           -0.6997     5.7765    -0.0469 O.2     
  13 O13            0.3605     3.5605     0.4141 O.2     
  14 N14           -1.1854     3.8343    -1.4900 N.am    
  15 C15           -1.4045     2.4806    -1.7198 C.ar    
  16 C16           -2.5371     2.0687    -2.4167 C.ar    
  17 C17           -2.7567     0.7297    -2.6457 C.ar    
  18 C18           -1.8411    -0.2174    -2.1776 C.ar    
  19 C19           -0.7048     0.1994    -1.4781 C.ar    
  20 C20           -0.4879     1.5403    -1.2573 C.ar    
  21 C21           -2.0738    -1.6536    -2.4210 C.2     
  22 O22           -1.1428    -2.3796    -2.7123 O.2     
  23 N23           -3.3182    -2.1612    -2.3204 N.am    
  24 C24           -3.5604    -3.6033    -2.4783 C.3     
  25 C25           -4.3809    -4.0932    -1.2804 C.3     
  26 N26           -5.5911    -3.2707    -1.1507 N.3     
  27 C27           -5.2549    -1.8687    -0.8688 C.3     
  28 C28           -4.4694    -1.2885    -2.0438 C.3     
  29 C29           -6.4890    -3.8136    -0.1226 C.3     
  30 C30           -7.6071    -2.8084     0.1605 C.3     
  31 C31           -8.7168    -3.2383     1.1221 C.3     
  32 C32           -7.6773    -2.2070     1.5656 C.3     
  33 H33           -4.8589     6.7232    -0.9743 H       
  34 H34           -6.7428     6.2070     0.5202 H       
  35 H35           -6.4496     4.5906     2.3530 H       
  36 H36           -4.9232     3.0231     3.5605 H       
  37 H37           -2.7182     2.0077     3.7839 H       
  38 H38           -0.9019     2.5947     2.2365 H       
  39 H39           -1.2892     4.4721    -2.2135 H       
  40 H40           -3.2442     2.8008    -2.7777 H       
  41 H41           -3.6357     0.4107    -3.1861 H       
  42 H42            0.0042    -0.5298    -1.1150 H       
  43 H43            0.3922     1.8633    -0.7211 H       
  44 H44           -4.1144    -3.7829    -3.3996 H       
  45 H45           -2.6083    -4.1330    -2.5111 H       
  46 H46           -4.6637    -5.1345    -1.4346 H       
  47 H47           -3.7845    -4.0085    -0.3719 H       
  48 H48           -6.1716    -1.2968    -0.7246 H       
  49 H49           -4.6464    -1.8150     0.0339 H       
  50 H50           -4.1180    -0.2885    -1.7896 H       
  51 H51           -5.1125    -1.2413    -2.9226 H       
  52 H52           -6.9225    -4.7492    -0.4761 H       
  53 H53           -5.9252    -3.9972     0.7920 H       
  54 H54           -7.8863    -2.1678    -0.6760 H       
  55 H55           -9.7260    -2.8802     0.9184 H       
  56 H56           -8.6503    -4.2373     1.5530 H       
  57 H57           -6.9269    -2.5275     2.2883 H       
  58 H58           -8.0026    -1.1704     1.6537 H       
@<TRIPOS>BOND
   1    1    2 ar
   2    1   10 ar
   3    2    3 ar
   4    2   33 1
   5    3    4 ar
   6    3   34 1
   7    4    5 ar
   8    4   35 1
   9    5    6 ar
  10    5   10 ar
  11    6    7 ar
  12    6   36 1
  13    7    8 ar
  14    7   37 1
  15    8    9 ar
  16    8   38 1
  17    9   10 ar
  18    9   11 1
  19   11   12 2
  20   11   13 2
  21   11   14 am
  22   14   15 1
  23   14   39 1
  24   15   16 ar
  25   15   20 ar
  26   16   17 ar
  27   16   40 1
  28   17   18 ar
  29   17   41 1
  30   18   19 ar
  31   18   21 1
  32   19   20 ar
  33   19   42 1
  34   20   43 1
  35   21   22 2
  36   21   23 am
  37   23   24 1
  38   23   28 1
  39   24   25 1
  40   24   44 1
  41   24   45 1
  42   25   26 1
  43   25   46 1
  44   25   47 1
  45   26   27 1
  46   26   29 1
  47   27   28 1
  48   27   48 1
  49   27   49 1
  50   28   50 1
  51   28   51 1
  52   29   30 1
  53   29   52 1
  54   29   53 1
  55   30   31 1
  56   30   32 1
  57   30   54 1
  58   31   32 1
  59   31   55 1
  60   31   56 1
  61   32   57 1
  62   32   58 1

#	End of record

