#	Name: ASD03240032
#	Creating user name:	WinNT
#	Creation time:	15. 06. 2019 20:34

#	Modifying user name:	WinNT
#	Modification time:	15. 06. 2019 20:34

#	Program:	/corina/corina34_cracker 3.40 0067  02.08.2006

@<TRIPOS>MOLECULE
ASD03240032
  89   95    0    0    0
SMALL
NO_CHARGES


@<TRIPOS>ATOM
   1 C1            -0.0232     1.4226    -0.0095 C.ar    
   2 C2             0.0011     0.0047     0.0012 C.ar    
   3 N3             1.1202     2.1167    -0.0245 N.ar    
   4 C4             2.2782     1.4817    -0.0295 C.ar    
   5 C5             2.3027     0.0197    -0.0185 C.ar    
   6 N6             1.1670    -0.6525    -0.0032 N.ar    
   7 C7             3.5957    -0.7033    -0.0239 C.ar    
   8 C8             3.5461     2.2468    -0.0466 C.ar    
   9 C9             3.6290     3.4491    -0.7489 C.ar    
  10 C10            4.8130     4.1576    -0.7607 C.ar    
  11 C11            5.9164     3.6779    -0.0779 C.ar    
  12 C12            5.8404     2.4860     0.6206 C.ar    
  13 C13            4.6605     1.7710     0.6443 C.ar    
  14 C14            3.7305    -1.9020     0.6760 C.ar    
  15 C15            4.9374    -2.5708     0.6672 C.ar    
  16 C16            6.0124    -2.0546    -0.0341 C.ar    
  17 C17            5.8848    -0.8659    -0.7303 C.ar    
  18 C18            4.6813    -0.1909    -0.7337 C.ar    
  19 C19            7.3279    -2.7898    -0.0392 C.3     
  20 N20            7.3583    -3.7311    -1.1665 N.3     
  21 C21            8.7034    -4.2920    -1.3476 C.3     
  22 C22            8.7328    -5.1517    -2.6133 C.3     
  23 C23            7.7033    -6.2777    -2.4837 C.3     
  24 C24            6.3187    -5.6679    -2.2476 C.3     
  25 C25            6.3592    -4.7931    -0.9925 C.3     
  26 N26            7.6858    -7.0694    -3.7162 N.am    
  27 C27            7.9651    -8.4304    -3.8148 C.ar    
  28 C28            7.8330    -8.7730    -5.1619 C.ar    
  29 N29            7.4775    -7.6095    -5.8401 N.am    
  30 C30            7.3914    -6.6067    -4.9458 C.2     
  31 C31            8.3163    -9.3994    -2.8871 C.ar    
  32 C32            8.5339   -10.6993    -3.2998 C.ar    
  33 C33            8.4028   -11.0389    -4.6355 C.ar    
  34 C34            8.0534   -10.0807    -5.5667 C.ar    
  35 O35            7.1002    -5.4551    -5.2101 O.2     
  36 C36           -1.2113    -0.7055     0.0170 C.ar    
  37 C37           -2.4101    -0.0126     0.0219 C.ar    
  38 C38           -2.4204     1.3933     0.0111 C.ar    
  39 C39           -1.2597     2.0965     0.0018 C.ar    
  40 C40           -3.6876    -0.7561     0.0380 C.2     
  41 O41           -3.7849    -1.8103    -0.5593 O.2     
  42 N42           -4.7445    -0.2650     0.7150 N.am    
  43 C43           -6.0448    -0.9343     0.6285 C.3     
  44 C44           -6.1512    -1.9869     1.7337 C.3     
  45 N45           -7.4551    -2.6580     1.6469 N.3     
  46 C46           -7.5634    -3.4398     0.4080 C.3     
  47 C47           -4.5930     0.9379     1.5373 C.3     
  48 C48           -7.6917    -3.5030     2.8251 C.3     
  49 H49            2.7684     3.8245    -1.2827 H       
  50 H50            4.8785     5.0885    -1.3044 H       
  51 H51            6.8410     4.2358    -0.0903 H       
  52 H52            6.7052     2.1164     1.1514 H       
  53 H53            4.6024     0.8408     1.1899 H       
  54 H54            2.8921    -2.3058     1.2241 H       
  55 H55            5.0431    -3.4990     1.2091 H       
  56 H56            6.7275    -0.4678    -1.2759 H       
  57 H57            4.5829     0.7370    -1.2776 H       
  58 H58            8.1437    -2.0741    -0.1413 H       
  59 H59            7.4410    -3.3387     0.8957 H       
  60 H60            9.4253    -3.4808    -1.4427 H       
  61 H61            8.9597    -4.9068    -0.4849 H       
  62 H62            8.4901    -4.5345    -3.4783 H       
  63 H63            9.7271    -5.5805    -2.7389 H       
  64 H64            7.9677    -6.9179    -1.6421 H       
  65 H65            6.0380    -5.0588    -3.1068 H       
  66 H66            5.5882    -6.4654    -2.1119 H       
  67 H67            6.6265    -5.4056    -0.1314 H       
  68 H68            5.3786    -4.3461    -0.8296 H       
  69 H69            7.3157    -7.5352    -6.7936 H       
  70 H70            8.4198    -9.1381    -1.8444 H       
  71 H71            8.8077   -11.4540    -2.5774 H       
  72 H72            8.5746   -12.0575    -4.9506 H       
  73 H73            7.9518   -10.3495    -6.6078 H       
  74 H74           -1.2082    -1.7854     0.0250 H       
  75 H75           -3.3633     1.9200     0.0147 H       
  76 H76           -1.2844     3.1762    -0.0061 H       
  77 H77           -6.8405    -0.1991     0.7492 H       
  78 H78           -6.1409    -1.4173    -0.3439 H       
  79 H79           -5.3555    -2.7221     1.6130 H       
  80 H80           -6.0551    -1.5039     2.7060 H       
  81 H81           -6.7789    -4.1962     0.3859 H       
  82 H82           -8.5382    -3.9261     0.3693 H       
  83 H83           -7.4535    -2.7773    -0.4505 H       
  84 H84           -4.7205     1.8227     0.9137 H       
  85 H85           -5.3465     0.9368     2.3249 H       
  86 H86           -3.5993     0.9491     1.9851 H       
  87 H87           -7.6750    -2.8863     3.7237 H       
  88 H88           -8.6637    -3.9879     2.7351 H       
  89 H89           -6.9118    -4.2617     2.8905 H       
@<TRIPOS>BOND
   1    1    2 ar
   2    1    3 ar
   3    1   39 ar
   4    2   36 ar
   5    2    6 ar
   6    3    4 ar
   7    4    5 ar
   8    4    8 1
   9    5    6 ar
  10    5    7 1
  11    7   14 ar
  12    7   18 ar
  13    8    9 ar
  14    8   13 ar
  15    9   10 ar
  16    9   49 1
  17   10   11 ar
  18   10   50 1
  19   11   12 ar
  20   11   51 1
  21   12   13 ar
  22   12   52 1
  23   13   53 1
  24   14   15 ar
  25   14   54 1
  26   15   16 ar
  27   15   55 1
  28   16   17 ar
  29   16   19 1
  30   17   18 ar
  31   17   56 1
  32   18   57 1
  33   19   20 1
  34   19   58 1
  35   19   59 1
  36   20   21 1
  37   20   25 1
  38   21   22 1
  39   21   60 1
  40   21   61 1
  41   22   23 1
  42   22   62 1
  43   22   63 1
  44   23   24 1
  45   23   26 1
  46   23   64 1
  47   24   25 1
  48   24   65 1
  49   24   66 1
  50   25   67 1
  51   25   68 1
  52   26   27 1
  53   26   30 am
  54   27   28 ar
  55   27   31 ar
  56   28   29 1
  57   28   34 ar
  58   29   30 am
  59   29   69 1
  60   30   35 2
  61   31   32 ar
  62   31   70 1
  63   32   33 ar
  64   32   71 1
  65   33   34 ar
  66   33   72 1
  67   34   73 1
  68   36   37 ar
  69   36   74 1
  70   37   38 ar
  71   37   40 1
  72   38   39 ar
  73   38   75 1
  74   39   76 1
  75   40   41 2
  76   40   42 am
  77   42   43 1
  78   42   47 1
  79   43   44 1
  80   43   77 1
  81   43   78 1
  82   44   45 1
  83   44   79 1
  84   44   80 1
  85   45   46 1
  86   45   48 1
  87   46   81 1
  88   46   82 1
  89   46   83 1
  90   47   84 1
  91   47   85 1
  92   47   86 1
  93   48   87 1
  94   48   88 1
  95   48   89 1

#	End of record

