#	Name: ASD02560432
#	Creating user name:	WinNT
#	Creation time:	15. 06. 2019 20:25

#	Modifying user name:	WinNT
#	Modification time:	15. 06. 2019 20:25

#	Program:	/corina/corina34_cracker 3.40 0067  02.08.2006

@<TRIPOS>MOLECULE
ASD02560432
  62   66    0    0    0
SMALL
NO_CHARGES


@<TRIPOS>ATOM
   1 C1             0.0489     1.4002     0.7010 C.2     
   2 C2             0.0584    -0.0048     0.6375 C.2     
   3 C3             1.2135    -0.6700     0.4357 C.2     
   4 N4             2.3919     0.0102     0.2897 N.pl3   
   5 C5             2.4132     1.3848     0.3468 C.2     
   6 C6             1.2110     2.0909     0.5575 C.2     
   7 C7             3.6796    -0.4017     0.0789 C.2     
   8 C8             4.4493     0.7138     0.0125 C.2     
   9 N9             3.6637     1.7841     0.1770 N.2     
  10 C10            5.9397     0.7422    -0.2090 C.3     
  11 N11            4.1201    -1.7252    -0.0446 N.3     
  12 C12            2.9997    -2.6669     0.0813 C.3     
  13 C13            3.5191    -4.0992    -0.0591 C.3     
  14 C14            6.2311     0.8140    -1.7092 C.3     
  15 C15            7.7442     0.8428    -1.9341 C.3     
  16 C16            2.3408    -2.4953     1.4515 C.3     
  17 C17            1.1739    -3.4761     1.5826 C.3     
  18 C18            1.6933    -4.9084     1.4422 C.3     
  19 C19            2.3522    -5.0800     0.0721 C.3     
  20 C20            0.1465    -3.1963     0.4840 C.3     
  21 C21            1.3248    -4.8001    -1.0265 C.3     
  22 C22            0.8054    -3.3678    -0.8862 C.3     
  23 C23            1.9723    -2.3870    -1.0173 C.3     
  24 C24            8.0356     0.9146    -3.4344 C.3     
  25 C25            9.5487     0.9435    -3.6592 C.3     
  26 C26            9.8401     1.0152    -5.1595 C.3     
  27 C27           11.3533     1.0441    -5.3843 C.3     
  28 H28           -0.8795     1.9289     0.8588 H       
  29 H29           -0.8646    -0.5538     0.7515 H       
  30 H30            1.2088    -1.7489     0.3891 H       
  31 H31            1.2134     3.1699     0.6040 H       
  32 H32            6.3639     1.6159     0.2858 H       
  33 H33            6.3859    -0.1621     0.2050 H       
  34 H34            4.6121    -1.8628    -0.9148 H       
  35 H35            3.9885    -4.2214    -1.0352 H       
  36 H36            4.2511    -4.2986     0.7236 H       
  37 H37            5.8069    -0.0598    -2.2040 H       
  38 H38            5.7850     1.7182    -2.1232 H       
  39 H39            8.1684     1.7166    -1.4394 H       
  40 H40            8.1904    -0.0614    -1.5201 H       
  41 H41            3.0728    -2.6947     2.2341 H       
  42 H42            1.9708    -1.4749     1.5515 H       
  43 H43            0.7045    -3.3539     2.5587 H       
  44 H44            2.4253    -5.1078     2.2249 H       
  45 H45            0.8620    -5.6072     1.5357 H       
  46 H46            2.7222    -6.1004    -0.0279 H       
  47 H47           -0.6848    -3.8950     0.5774 H       
  48 H48           -0.2235    -2.1759     0.5840 H       
  49 H49            1.7942    -4.9224    -2.0027 H       
  50 H50            0.4935    -5.4989    -0.9331 H       
  51 H51            0.0734    -3.1684    -1.6688 H       
  52 H52            1.6023    -1.3666    -0.9173 H       
  53 H53            2.4417    -2.5093    -1.9934 H       
  54 H54            7.6114     0.0409    -3.9291 H       
  55 H55            7.5895     1.8189    -3.8483 H       
  56 H56            9.9730     1.8172    -3.1645 H       
  57 H57            9.9949     0.0392    -3.2452 H       
  58 H58            9.4159     0.1415    -5.6542 H       
  59 H59            9.3940     1.9195    -5.5734 H       
  60 H60           11.7775     1.9178    -4.8896 H       
  61 H61           11.7994     0.1398    -4.9704 H       
  62 H62           11.5608     1.0952    -6.4531 H       
@<TRIPOS>BOND
   1    1    2 1
   2    1    6 2
   3    1   28 1
   4    2    3 2
   5    2   29 1
   6    3    4 1
   7    3   30 1
   8    4    5 1
   9    4    7 1
  10    5    6 1
  11    5    9 2
  12    6   31 1
  13    7    8 2
  14    7   11 1
  15    8    9 1
  16    8   10 1
  17   10   14 1
  18   10   32 1
  19   10   33 1
  20   11   12 1
  21   11   34 1
  22   12   13 1
  23   12   16 1
  24   12   23 1
  25   13   19 1
  26   13   35 1
  27   13   36 1
  28   14   15 1
  29   14   37 1
  30   14   38 1
  31   15   24 1
  32   15   39 1
  33   15   40 1
  34   16   17 1
  35   16   41 1
  36   16   42 1
  37   17   18 1
  38   17   20 1
  39   17   43 1
  40   18   19 1
  41   18   44 1
  42   18   45 1
  43   19   21 1
  44   19   46 1
  45   20   22 1
  46   20   47 1
  47   20   48 1
  48   21   22 1
  49   21   49 1
  50   21   50 1
  51   22   23 1
  52   22   51 1
  53   23   52 1
  54   23   53 1
  55   24   25 1
  56   24   54 1
  57   24   55 1
  58   25   26 1
  59   25   56 1
  60   25   57 1
  61   26   27 1
  62   26   58 1
  63   26   59 1
  64   27   60 1
  65   27   61 1
  66   27   62 1

#	End of record

