#	Name: ASD01680140
#	Creating user name:	WinNT
#	Creation time:	15. 06. 2019 19:22

#	Modifying user name:	WinNT
#	Modification time:	15. 06. 2019 19:22

#	Program:	/corina/corina34_cracker 3.40 0067  02.08.2006

@<TRIPOS>MOLECULE
ASD01680140
  83   86    0    0    0
SMALL
NO_CHARGES


@<TRIPOS>ATOM
   1 N1             1.6330    10.1685     2.8333 N.am    
   2 C2             0.3446     9.5352     2.4983 C.3     
   3 C3             0.6607     8.0220     2.3981 C.3     
   4 C4             2.0710     8.0406     1.7515 C.3     
   5 C5             2.7218     9.2920     2.3775 C.3     
   6 C6             1.7873    11.3569     3.4500 C.2     
   7 O7             0.8164    12.0466     3.6915 O.2     
   8 O8             3.0170    11.7799     3.7985 O.3     
   9 C9            -0.6793     9.7930     3.6056 C.3     
  10 N10           -0.1304     9.3527     4.8905 N.pl3   
  11 C11           -0.8447     9.5708     6.0628 C.ar    
  12 C12           -2.0805    10.2079     6.0089 C.ar    
  13 C13           -2.7804    10.4185     7.1829 C.ar    
  14 C14           -2.2191     9.9832     8.3764 C.ar    
  15 C15           -0.9888     9.3580     8.3565 C.ar    
  16 N16           -0.3456     9.1655     7.2203 N.ar    
  17 O17            2.8021     6.8630     2.0990 O.3     
  18 C18            3.7417     6.4478     1.1056 C.3     
  19 C19            4.4517     5.2040     1.5744 C.2     
  20 N20            5.3888     4.6287     0.7951 N.am    
  21 O21            4.1800     4.7207     2.6531 O.2     
  22 C22            6.0791     3.4196     1.2508 C.3     
  23 C23            7.0851     2.9751     0.1872 C.3     
  24 N24            7.9914     4.0839    -0.1214 N.am    
  25 C25            8.6074     4.1374    -1.3190 C.2     
  26 O26            8.4108     3.2655    -2.1433 O.2     
  27 N27            9.4412     5.1575    -1.6030 N.am    
  28 C28           10.0190     5.2560    -2.8738 C.ar    
  29 C29            9.6828     6.3116    -3.7111 C.ar    
  30 C30           10.2552     6.4062    -4.9645 C.ar    
  31 C31           11.1621     5.4511    -5.3859 C.ar    
  32 C32           11.4990     4.3988    -4.5544 C.ar    
  33 C33           10.9341     4.3014    -3.2978 C.ar    
  34 C34           11.3064     3.1577    -2.3900 C.3     
  35 C35            8.6941     7.3525    -3.2528 C.3     
  36 C36            7.8810     1.8054     0.7062 C.2     
  37 O37            9.0820     1.8893     0.8079 O.2     
  38 O38            7.2556     0.6702     1.0556 O.3     
  39 C39            3.1079    13.0696     4.4593 C.3     
  40 C40            4.5505    13.3738     4.7712 C.ar    
  41 C41            5.3290    14.0501     3.8506 C.ar    
  42 C42            6.6523    14.3290     4.1366 C.ar    
  43 C43            7.1971    13.9320     5.3435 C.ar    
  44 C44            6.4184    13.2565     6.2645 C.ar    
  45 C45            5.0939    12.9814     5.9802 C.ar    
  46 H46           -0.0253     9.9095     1.5438 H       
  47 H47            0.6900     7.5627     3.3862 H       
  48 H48           -0.0577     7.5146     1.7543 H       
  49 H49            1.9975     8.1447     0.6689 H       
  50 H50            3.3256     9.8084     1.6313 H       
  51 H51            3.3436     9.0021     3.2245 H       
  52 H52           -0.9034    10.8587     3.6523 H       
  53 H53           -1.5932     9.2387     3.3917 H       
  54 H54            0.7315     8.9089     4.9232 H       
  55 H55           -2.4874    10.5339     5.0631 H       
  56 H56           -3.7417    10.9107     7.1720 H       
  57 H57           -2.7400    10.1327     9.3106 H       
  58 H58           -0.5487     9.0179     9.2823 H       
  59 H59            3.2163     6.2370     0.1742 H       
  60 H60            4.4701     7.2416     0.9402 H       
  61 H61            5.6062     5.0153    -0.0676 H       
  62 H62            6.6045     3.6304     2.1823 H       
  63 H63            5.3506     2.6258     1.4162 H       
  64 H64            6.5518     2.6794    -0.7163 H       
  65 H65            8.1482     4.7796     0.5361 H       
  66 H66            9.6407     5.8235    -0.9265 H       
  67 H67            9.9939     7.2267    -5.6163 H       
  68 H68           11.6081     5.5271    -6.3666 H       
  69 H69           12.2076     3.6545    -4.8864 H       
  70 H70           10.6796     2.2952    -2.6163 H       
  71 H71           12.3533     2.8967    -2.5451 H       
  72 H72           11.1558     3.4540    -1.3519 H       
  73 H73            9.2246     8.1605    -2.7489 H       
  74 H74            8.1601     7.7510    -4.1154 H       
  75 H75            7.9827     6.8990    -2.5628 H       
  76 H76            7.8082    -0.0526     1.3830 H       
  77 H77            2.7070    13.8428     3.8039 H       
  78 H78            2.5334    13.0446     5.3853 H       
  79 H79            4.9033    14.3602     2.9077 H       
  80 H80            7.2607    14.8567     3.4171 H       
  81 H81            8.2312    14.1493     5.5667 H       
  82 H82            6.8441    12.9461     7.2073 H       
  83 H83            4.4845    12.4569     6.7013 H       
@<TRIPOS>BOND
   1    1    2 1
   2    1    5 1
   3    1    6 am
   4    2    3 1
   5    2    9 1
   6    2   46 1
   7    3    4 1
   8    3   47 1
   9    3   48 1
  10    4    5 1
  11    4   17 1
  12    4   49 1
  13    5   50 1
  14    5   51 1
  15    6    7 2
  16    6    8 1
  17    8   39 1
  18    9   10 1
  19    9   52 1
  20    9   53 1
  21   10   11 1
  22   10   54 1
  23   11   12 ar
  24   11   16 ar
  25   12   13 ar
  26   12   55 1
  27   13   14 ar
  28   13   56 1
  29   14   15 ar
  30   14   57 1
  31   15   16 ar
  32   15   58 1
  33   17   18 1
  34   18   19 1
  35   18   59 1
  36   18   60 1
  37   19   20 am
  38   19   21 2
  39   20   22 1
  40   20   61 1
  41   22   23 1
  42   22   62 1
  43   22   63 1
  44   23   24 1
  45   23   36 1
  46   23   64 1
  47   24   25 am
  48   24   65 1
  49   25   26 2
  50   25   27 am
  51   27   28 1
  52   27   66 1
  53   28   29 ar
  54   28   33 ar
  55   29   30 ar
  56   29   35 1
  57   30   31 ar
  58   30   67 1
  59   31   32 ar
  60   31   68 1
  61   32   33 ar
  62   32   69 1
  63   33   34 1
  64   34   70 1
  65   34   71 1
  66   34   72 1
  67   35   73 1
  68   35   74 1
  69   35   75 1
  70   36   37 2
  71   36   38 1
  72   38   76 1
  73   39   40 1
  74   39   77 1
  75   39   78 1
  76   40   41 ar
  77   40   45 ar
  78   41   42 ar
  79   41   79 1
  80   42   43 ar
  81   42   80 1
  82   43   44 ar
  83   43   81 1
  84   44   45 ar
  85   44   82 1
  86   45   83 1

#	End of record

