#	Name: ASD07930108
#	Creating user name:	WinNT
#	Creation time:	15. 06. 2019 21:11

#	Modifying user name:	WinNT
#	Modification time:	15. 06. 2019 21:11

#	Program:	/corina/corina34_cracker 3.40 0067  02.08.2006

@<TRIPOS>MOLECULE
ASD07930108
  24   25    0    0    0
SMALL
NO_CHARGES


@<TRIPOS>ATOM
   1 C1            -0.0166     1.3711     0.0096 C.2     
   2 C2             0.0021    -0.0041     0.0020 C.2     
   3 C3             1.2139    -0.6974    -0.0133 C.2     
   4 C4             2.4036     0.0183    -0.0209 C.2     
   5 C5             2.3450     1.4867    -0.0124 C.2     
   6 N6             1.1456     2.1011     0.0024 N.am    
   7 C7            -1.3102     2.0748     0.0195 C.2     
   8 O8            -2.3469     1.4406     0.0209 O.2     
   9 O9            -1.3444     3.4227     0.0270 O.3     
  10 O10            3.3717     2.1428    -0.0184 O.2     
  11 O11            4.1999    -1.4721     0.9380 O.3     
  12 C12            5.3986    -1.9103     0.5306 C.2     
  13 N13            5.6532    -1.4210    -0.6517 N.2     
  14 C14            4.6243    -0.6545    -1.0364 C.2     
  15 C15            3.6988    -0.6803    -0.0366 C.2     
  16 C16            6.3076    -2.8228     1.3130 C.3     
  17 H17           -0.9284    -0.5523     0.0084 H       
  18 H18            1.2257    -1.7773    -0.0189 H       
  19 H19            1.1033     3.0701     0.0080 H       
  20 H20           -2.2169     3.8396     0.0334 H       
  21 H21            4.5434    -0.1143    -1.9681 H       
  22 H22            6.0803    -3.8601     1.0671 H       
  23 H23            7.3453    -2.6079     1.0578 H       
  24 H24            6.1547    -2.6603     2.3799 H       
@<TRIPOS>BOND
   1    1    2 2
   2    1    6 1
   3    1    7 1
   4    2    3 1
   5    2   17 1
   6    3    4 2
   7    3   18 1
   8    4    5 1
   9    4   15 1
  10    5    6 am
  11    5   10 2
  12    6   19 1
  13    7    8 2
  14    7    9 1
  15    9   20 1
  16   11   12 1
  17   11   15 1
  18   12   13 2
  19   12   16 1
  20   13   14 1
  21   14   15 2
  22   14   21 1
  23   16   22 1
  24   16   23 1
  25   16   24 1

#	End of record

