#	Name: ASD05143039
#	Creating user name:	WinNT
#	Creation time:	15. 06. 2019 20:57

#	Modifying user name:	WinNT
#	Modification time:	15. 06. 2019 20:57

#	Program:	/corina/corina34_cracker 3.40 0067  02.08.2006

@<TRIPOS>MOLECULE
ASD05143039
 145  148    0    0    0
SMALL
NO_CHARGES


@<TRIPOS>ATOM
   1 C1            -2.1025     5.4081     7.5403 C.2     
   2 C2            -1.6166     4.6716     8.7619 C.3     
   3 N3            -1.2151     5.9432     6.6785 N.am    
   4 O4            -3.2922     5.5151     7.3299 O.2     
   5 C5            -1.6875     6.6592     5.4909 C.3     
   6 C6            -2.5212     5.7140     4.6235 C.3     
   7 C7            -2.5351     7.8309     5.9149 C.2     
   8 C8            -1.6293     4.5907     4.0908 C.3     
   9 C9            -2.4630     3.6455     3.2234 C.3     
  10 N10           -1.6091     2.5699     2.7134 N.pl3   
  11 C11           -2.1419     1.5941     1.9046 C.2     
  12 N12           -1.3405     0.5847     1.4259 N.pl3   
  13 N13           -3.4068     1.6259     1.5917 N.2     
  14 O14           -3.0274     7.8537     7.0230 O.2     
  15 N15           -2.7461     8.8534     5.0626 N.am    
  16 C16           -3.5701     9.9924     5.4747 C.3     
  17 C17           -2.6672    11.1839     5.8000 C.3     
  18 C18           -1.5108    10.7209     6.6883 C.3     
  19 C19           -0.3699    10.2502     5.8237 C.2     
  20 O20           -0.5728     9.5185     4.8779 O.2     
  21 N21            0.8972    10.6631     6.1246 N.am    
  22 C22            1.9603    10.1504     5.2304 C.3     
  23 C23            2.1102    11.1092     4.0475 C.3     
  24 C24            2.7734    10.3770     2.8791 C.3     
  25 C25            3.7316    11.3275     2.1586 C.3     
  26 N26            3.6797    11.0482     0.7094 N.am    
  27 C27            5.1343    11.1101     2.6649 C.2     
  28 N28            5.5221    11.6603     3.8325 N.am    
  29 O29            5.9141    10.4400     2.0216 O.2     
  30 C30            2.8533    11.8351    -0.0323 C.2     
  31 O31            2.2095    12.7177     0.4946 O.2     
  32 C32            2.7488    11.5964    -1.5166 C.3     
  33 N33            1.5339    12.2783    -2.0191 N.am    
  34 C34            3.9843    12.1655    -2.2169 C.3     
  35 C35            0.4808    11.4582    -2.3107 C.2     
  36 O36            0.5725    10.2581    -2.1617 O.2     
  37 C37           -0.7971    12.0733    -2.8205 C.3     
  38 N38           -1.9238    11.1806    -2.4830 N.am    
  39 C39           -1.0084    13.4374    -2.1606 C.3     
  40 C40           -3.0283    11.7696    -1.9474 C.2     
  41 O41           -3.0578    12.9677    -1.7620 O.2     
  42 C42           -4.2139    10.9112    -1.5890 C.3     
  43 C43            3.9359    11.8178    -3.6824 C.2     
  44 C44            3.2373    12.5634    -4.7322 C.ar    
  45 C45            3.4749    11.8640    -5.9294 C.ar    
  46 N46            4.2602    10.7773    -5.6160 N.pl3   
  47 C47            4.5294    10.7694    -4.2744 C.2     
  48 C48            2.4604    13.7235    -4.7455 C.ar    
  49 C49            1.9343    14.1740    -5.9231 C.ar    
  50 C50            2.1656    13.4872    -7.1073 C.ar    
  51 C51            2.9297    12.3411    -7.1171 C.ar    
  52 N52           -4.7994    11.4144    -0.3254 N.am    
  53 C53           -3.7607     9.4617    -1.4032 C.3     
  54 C54           -4.9591     8.5931    -1.1197 C.ar    
  55 C55           -5.9883     8.5155    -2.0391 C.ar    
  56 C56           -7.0898     7.7178    -1.7807 C.ar    
  57 C57           -7.1601     6.9967    -0.5992 C.ar    
  58 C58           -6.1271     7.0758     0.3213 C.ar    
  59 C59           -5.0249     7.8705     0.0569 C.ar    
  60 C60           -4.5087    10.3645     4.3557 C.2     
  61 N61           -3.9921    10.8502     3.1936 N.am    
  62 O62           -5.7070    10.2328     4.4885 O.2     
  63 C63           -4.9601    11.1978     2.1342 C.3     
  64 C64           -5.1819    12.7116     2.1190 C.3     
  65 C65           -4.4057    10.7553     0.8047 C.2     
  66 C66           -5.8448    13.1431     3.4286 C.3     
  67 N67           -6.0577    14.5965     3.4140 N.3     
  68 O68           -3.6242     9.8301     0.7389 O.2     
  69 C69           -1.0181    13.2721    -0.6396 C.3     
  70 C70           -1.3760    14.6073     0.0163 C.3     
  71 N71           -1.3853    14.4490     1.4727 N.pl3   
  72 C72           -1.6824    15.5223     2.2789 C.2     
  73 N73           -1.6911    15.3738     3.6457 N.pl3   
  74 N74           -1.9558    16.6806     1.7474 N.2     
  75 F75           -8.2345     6.2180    -0.3451 F       
  76 F76           -8.0956     7.6427    -2.6795 F       
  77 F77           -6.1936     6.3741     1.4739 F       
  78 H78           -1.5105     5.3721     9.5902 H       
  79 H79           -2.3363     3.8981     9.0300 H       
  80 H80           -0.6515     4.2118     8.5490 H       
  81 H81           -0.2635     5.8542     6.8446 H       
  82 H82           -0.8319     7.0179     4.9187 H       
  83 H83           -3.3257     5.2864     5.2219 H       
  84 H84           -2.9460     6.2685     3.7868 H       
  85 H85           -0.8248     5.0183     3.4925 H       
  86 H86           -1.2045     4.0363     4.9276 H       
  87 H87           -3.2675     3.2179     3.8218 H       
  88 H88           -2.8878     4.1999     2.3866 H       
  89 H89           -0.6677     2.5463     2.9462 H       
  90 H90           -0.3992     0.5611     1.6588 H       
  91 H91           -1.7164    -0.1037     0.8553 H       
  92 H92           -3.7827     0.9374     1.0211 H       
  93 H93           -2.3523     8.8351     4.1763 H       
  94 H94           -4.1476     9.7221     6.3587 H       
  95 H95           -2.2699    11.6019     4.8750 H       
  96 H96           -3.2452    11.9454     6.3237 H       
  97 H97           -1.1764    11.5506     7.3110 H       
  98 H98           -1.8467     9.9019     7.3242 H       
  99 H99            1.0872    11.2515     6.8719 H       
 100 H100           2.9018    10.0937     5.7767 H       
 101 H101           1.6859     9.1604     4.8662 H       
 102 H102           1.1266    11.4656     3.7417 H       
 103 H103           2.7284    11.9570     4.3429 H       
 104 H104           3.3288     9.5185     3.2567 H       
 105 H105           2.0075    10.0362     2.1824 H       
 106 H106           3.4304    12.3587     2.3428 H       
 107 H107           4.2070    10.3404     0.3071 H       
 108 H108           4.8984    12.1962     4.3469 H       
 109 H109           6.4250    11.5204     4.1583 H       
 110 H110           2.6748    10.5264    -1.7109 H       
 111 H111           1.4892    13.2405    -2.1336 H       
 112 H112           4.0008    13.2492    -2.1009 H       
 113 H113           4.8831    11.7387    -1.7717 H       
 114 H114          -0.7382    12.1940    -3.9022 H       
 115 H115          -1.8792    10.2236    -2.6347 H       
 116 H116          -0.1995    14.1092    -2.4479 H       
 117 H117          -1.9609    13.8552    -2.4867 H       
 118 H118          -4.9580    10.9650    -2.3837 H       
 119 H119           4.5784    10.1177    -6.2521 H       
 120 H120           5.1248    10.0255    -3.7659 H       
 121 H121           2.2758    14.2626    -3.8280 H       
 122 H122           1.3335    15.0714    -5.9329 H       
 123 H123           1.7426    13.8555    -8.0302 H       
 124 H124           3.1040    11.8141    -8.0435 H       
 125 H125          -5.4190    12.1603    -0.3017 H       
 126 H126          -3.2680     9.1158    -2.3118 H       
 127 H127          -3.0637     9.4033    -0.5672 H       
 128 H128          -5.9332     9.0779    -2.9594 H       
 129 H129          -4.2197     7.9325     0.7740 H       
 130 H130          -3.0368    10.9625     3.0681 H       
 131 H131          -5.9067    10.6919     2.3241 H       
 132 H132          -4.2226    13.2183     2.0131 H       
 133 H133          -5.8268    12.9759     1.2810 H       
 134 H134          -6.8040    12.6364     3.5345 H       
 135 H135          -5.1998    12.8788     4.2666 H       
 136 H136          -6.4948    14.9066     4.2690 H       
 137 H137          -5.1911    15.0873     3.2523 H       
 138 H138          -1.7567    12.5207    -0.3605 H       
 139 H139          -0.0314    12.9546    -0.3023 H       
 140 H140          -0.6374    15.3587    -0.2629 H       
 141 H141          -2.3627    14.9248    -0.3210 H       
 142 H142          -1.1818    13.5870     1.8681 H       
 143 H143          -1.4877    14.5118     4.0411 H       
 144 H144          -1.9007    16.1310     4.2145 H       
 145 H145          -2.1654    17.4379     2.3163 H       
@<TRIPOS>BOND
   1    1    2 1
   2    1    3 am
   3    1    4 2
   4    2   78 1
   5    2   79 1
   6    2   80 1
   7    3    5 1
   8    3   81 1
   9    5    6 1
  10    5    7 1
  11    5   82 1
  12    6    8 1
  13    6   83 1
  14    6   84 1
  15    7   14 2
  16    7   15 am
  17    8    9 1
  18    8   85 1
  19    8   86 1
  20    9   10 1
  21    9   87 1
  22    9   88 1
  23   10   11 1
  24   10   89 1
  25   11   12 1
  26   11   13 2
  27   12   90 1
  28   12   91 1
  29   13   92 1
  30   15   16 1
  31   15   93 1
  32   16   17 1
  33   16   60 1
  34   16   94 1
  35   17   18 1
  36   17   95 1
  37   17   96 1
  38   18   19 1
  39   18   97 1
  40   18   98 1
  41   19   20 2
  42   19   21 am
  43   21   22 1
  44   21   99 1
  45   22   23 1
  46   22  100 1
  47   22  101 1
  48   23   24 1
  49   23  102 1
  50   23  103 1
  51   24   25 1
  52   24  104 1
  53   24  105 1
  54   25   26 1
  55   25   27 1
  56   25  106 1
  57   26   30 am
  58   26  107 1
  59   27   28 am
  60   27   29 2
  61   28  108 1
  62   28  109 1
  63   30   31 2
  64   30   32 1
  65   32   33 1
  66   32   34 1
  67   32  110 1
  68   33   35 am
  69   33  111 1
  70   34   43 1
  71   34  112 1
  72   34  113 1
  73   35   36 2
  74   35   37 1
  75   37   38 1
  76   37   39 1
  77   37  114 1
  78   38   40 am
  79   38  115 1
  80   39   69 1
  81   39  116 1
  82   39  117 1
  83   40   41 2
  84   40   42 1
  85   42   52 1
  86   42   53 1
  87   42  118 1
  88   43   44 1
  89   43   47 2
  90   44   45 ar
  91   44   48 ar
  92   45   46 1
  93   45   51 ar
  94   46   47 1
  95   46  119 1
  96   47  120 1
  97   48   49 ar
  98   48  121 1
  99   49   50 ar
 100   49  122 1
 101   50   51 ar
 102   50  123 1
 103   51  124 1
 104   52   65 am
 105   52  125 1
 106   53   54 1
 107   53  126 1
 108   53  127 1
 109   54   55 ar
 110   54   59 ar
 111   55   56 ar
 112   55  128 1
 113   56   57 ar
 114   56   76 1
 115   57   58 ar
 116   57   75 1
 117   58   59 ar
 118   58   77 1
 119   59  129 1
 120   60   61 am
 121   60   62 2
 122   61   63 1
 123   61  130 1
 124   63   64 1
 125   63   65 1
 126   63  131 1
 127   64   66 1
 128   64  132 1
 129   64  133 1
 130   65   68 2
 131   66   67 1
 132   66  134 1
 133   66  135 1
 134   67  136 1
 135   67  137 1
 136   69   70 1
 137   69  138 1
 138   69  139 1
 139   70   71 1
 140   70  140 1
 141   70  141 1
 142   71   72 1
 143   71  142 1
 144   72   73 1
 145   72   74 2
 146   73  143 1
 147   73  144 1
 148   74  145 1

#	End of record

