#	Name: ASD01410644
#	Creating user name:	WinNT
#	Creation time:	15. 06. 2019 19:18

#	Modifying user name:	WinNT
#	Modification time:	15. 06. 2019 19:18

#	Program:	/corina/corina34_cracker 3.40 0067  02.08.2006

@<TRIPOS>MOLECULE
ASD01410644
  68   70    0    0    0
SMALL
NO_CHARGES


@<TRIPOS>ATOM
   1 C1             5.2852     6.5986    -3.4484 C.ar    
   2 C2             5.7086     5.8056    -4.5058 C.ar    
   3 C3             6.3279     4.6000    -4.2406 C.ar    
   4 N4             6.5197     4.1971    -2.9992 N.ar    
   5 C5             6.1303     4.9247    -1.9651 C.ar    
   6 C6             5.5009     6.1480    -2.1576 C.ar    
   7 O7             6.3472     4.4717    -0.7049 O.3     
   8 C8             6.8716     3.2256    -0.5558 C.ar    
   9 C9             8.2455     3.0318    -0.6752 C.ar    
  10 C10            8.7878     1.7688    -0.5252 C.ar    
  11 C11            7.9648     0.6856    -0.2549 C.ar    
  12 C12            6.5792     0.8755    -0.1336 C.ar    
  13 C13            6.0404     2.1572    -0.2808 C.ar    
  14 F14            9.0522     4.0828    -0.9392 F       
  15 N15            8.5118    -0.5878    -0.1047 N.am    
  16 C16            8.8902    -1.0191     1.1148 C.2     
  17 C17            8.6753    -1.4572    -1.2724 C.3     
  18 O18            9.4446    -2.0912     1.2338 O.2     
  19 C19            8.6245    -0.1691     2.3306 C.3     
  20 C20            9.7604    -0.3523     3.3390 C.3     
  21 C21            9.4907     0.5106     4.5734 C.3     
  22 C22            8.1673     0.0860     5.2131 C.3     
  23 C23            7.0314     0.2692     4.2047 C.3     
  24 C24            7.3011    -0.5937     2.9704 C.3     
  25 C25            7.8975     0.9489     6.4475 C.3     
  26 C26            7.9777    -0.8267    -2.4794 C.3     
  27 C27           10.1650    -1.6283    -1.5763 C.3     
  28 O28            6.5692    -0.7771    -2.2433 O.3     
  29 O29           10.7907    -2.3395    -0.5064 O.3     
  30 C30           12.1913    -2.5539    -0.6918 C.3     
  31 C31            5.8200    -0.2023    -3.3158 C.3     
  32 C32            5.0595     6.9737    -0.9767 C.3     
  33 F33            4.4568     8.1518    -1.4307 F       
  34 F34            4.1411     6.2438    -0.2145 F       
  35 F35            6.1708     7.2921    -0.1887 F       
  36 C36            5.6980    -0.2690     0.1532 C.2     
  37 O37            6.1763    -1.3653     0.3680 O.2     
  38 O38            4.3610    -0.1005     0.1776 O.3     
  39 H39            4.8023     7.5476    -3.6286 H       
  40 H40            5.5552     6.1277    -5.5252 H       
  41 H41            6.6590     3.9791    -5.0599 H       
  42 H42            9.8541     1.6254    -0.6190 H       
  43 H43            4.9753     2.3102    -0.1887 H       
  44 H44            8.2325    -2.4314    -1.0649 H       
  45 H45            8.5658     0.8786     2.0357 H       
  46 H46            9.8191    -1.4000     3.6339 H       
  47 H47           10.7032    -0.0498     2.8832 H       
  48 H48           10.2999     0.3802     5.2918 H       
  49 H49            9.4320     1.5584     4.2785 H       
  50 H50            8.2260    -0.9617     5.5080 H       
  51 H51            6.0886    -0.0333     4.6605 H       
  52 H52            6.9727     1.3169     3.9098 H       
  53 H53            6.4919    -0.4633     2.2519 H       
  54 H54            7.3598    -1.6414     3.2653 H       
  55 H55            7.8389     1.9966     6.1526 H       
  56 H56            6.9547     0.6464     6.9032 H       
  57 H57            8.7068     0.8185     7.1659 H       
  58 H58            8.3565     0.1841    -2.6309 H       
  59 H59            8.1763    -1.4261    -3.3679 H       
  60 H60           10.2846    -2.1883    -2.5038 H       
  61 H61           10.6293    -0.6478    -1.6814 H       
  62 H62           12.6977    -1.5926    -0.7785 H       
  63 H63           12.5916    -3.0996     0.1627 H       
  64 H64           12.3531    -3.1331    -1.6009 H       
  65 H65            4.7606    -0.2011    -3.0592 H       
  66 H66            6.1540     0.8214    -3.4846 H       
  67 H67            5.9738    -0.7887    -4.2216 H       
  68 H68            3.8236    -0.8810     0.3703 H       
@<TRIPOS>BOND
   1    1    2 ar
   2    1    6 ar
   3    1   39 1
   4    2    3 ar
   5    2   40 1
   6    3    4 ar
   7    3   41 1
   8    4    5 ar
   9    5    6 ar
  10    5    7 1
  11    6   32 1
  12    7    8 1
  13    8    9 ar
  14    8   13 ar
  15    9   10 ar
  16    9   14 1
  17   10   11 ar
  18   10   42 1
  19   11   12 ar
  20   11   15 1
  21   12   13 ar
  22   12   36 1
  23   13   43 1
  24   15   16 am
  25   15   17 1
  26   16   18 2
  27   16   19 1
  28   17   26 1
  29   17   27 1
  30   17   44 1
  31   19   20 1
  32   19   24 1
  33   19   45 1
  34   20   21 1
  35   20   46 1
  36   20   47 1
  37   21   22 1
  38   21   48 1
  39   21   49 1
  40   22   23 1
  41   22   25 1
  42   22   50 1
  43   23   24 1
  44   23   51 1
  45   23   52 1
  46   24   53 1
  47   24   54 1
  48   25   55 1
  49   25   56 1
  50   25   57 1
  51   26   28 1
  52   26   58 1
  53   26   59 1
  54   27   29 1
  55   27   60 1
  56   27   61 1
  57   28   31 1
  58   29   30 1
  59   30   62 1
  60   30   63 1
  61   30   64 1
  62   31   65 1
  63   31   66 1
  64   31   67 1
  65   32   33 1
  66   32   34 1
  67   32   35 1
  68   36   37 2
  69   36   38 1
  70   38   68 1

#	End of record

