#	Name: ASD01870338
#	Creating user name:	WinNT
#	Creation time:	15. 06. 2019 19:39

#	Modifying user name:	WinNT
#	Modification time:	15. 06. 2019 19:39

#	Program:	/corina/corina34_cracker 3.40 0067  02.08.2006

@<TRIPOS>MOLECULE
ASD01870338
  50   54    0    0    0
SMALL
NO_CHARGES


@<TRIPOS>ATOM
   1 N1            -0.0179     1.4666     0.0101 N.am    
   2 C2             0.0021    -0.0041     0.0020 C.3     
   3 C3            -0.8912    -0.5093     1.1400 C.3     
   4 N4            -2.2247     0.0945     1.0165 N.3     
   5 C5            -2.1640     1.5549     1.1632 C.3     
   6 C6            -1.3228     2.1447     0.0324 C.3     
   7 C7            -3.1102    -0.4618     1.9322 C.ar    
   8 C8            -4.4290    -0.0200     1.9719 C.ar    
   9 C9            -5.2993    -0.5822     2.8879 C.ar    
  10 C10           -4.8199    -1.5712     3.7370 C.ar    
  11 C11           -3.4994    -1.9614     3.6428 C.ar    
  12 N12           -2.6926    -1.4111     2.7551 N.ar    
  13 C13            1.1293     2.1740     0.0030 C.2     
  14 C14            1.0857     3.6803     0.0115 C.3     
  15 O15            2.1967     1.5983    -0.0103 O.2     
  16 C16            2.4763     4.3407     0.0017 C.3     
  17 N17            1.9076     5.2908    -0.9739 N.am    
  18 C18            0.8907     4.3026    -1.3830 C.3     
  19 S19            2.2664     6.8425    -1.4275 S.o2    
  20 C20            3.4250     6.7442    -2.7514 C.ar    
  21 C21            3.0873     7.1808    -3.9900 C.ar    
  22 C22            3.9808     7.1185    -5.0669 C.ar    
  23 C23            5.2338     6.6181    -4.9315 C.ar    
  24 C24            5.6571     6.1455    -3.6742 C.ar    
  25 C25            4.7123     6.2168    -2.5316 C.ar    
  26 O26            1.0740     7.3858    -1.9773 O.2     
  27 O27            2.9563     7.4310    -0.3334 O.2     
  28 N28            6.7250     5.6119    -3.1341 N.2     
  29 O29            6.5101     5.3969    -1.9580 O.3     
  30 N30            5.4103     5.7079    -1.5465 N.2     
  31 H31           -0.3778    -0.3702    -0.9518 H       
  32 H32            1.0222    -0.3573     0.1529 H       
  33 H33           -0.9764    -1.5943     1.0812 H       
  34 H34           -0.4527    -0.2298     2.0980 H       
  35 H35           -3.1723     1.9669     1.1212 H       
  36 H36           -1.7078     1.8056     2.1209 H       
  37 H37           -1.1798     3.2121     0.2008 H       
  38 H38           -1.8275     1.9859    -0.9206 H       
  39 H39           -4.7683     0.7517     1.2968 H       
  40 H40           -6.3284    -0.2591     2.9421 H       
  41 H41           -5.4738    -2.0301     4.4638 H       
  42 H42           -3.1225    -2.7302     4.3011 H       
  43 H43            0.4145     4.0817     0.7708 H       
  44 H44            2.7518     4.7987     0.9517 H       
  45 H45            3.2612     3.7060    -0.4094 H       
  46 H46            1.2098     3.6567    -2.2009 H       
  47 H47           -0.0998     4.7302    -1.5387 H       
  48 H48            2.1002     7.5882    -4.1510 H       
  49 H49            3.6622     7.4793    -6.0337 H       
  50 H50            5.9008     6.5820    -5.7802 H       
@<TRIPOS>BOND
   1    1    2 1
   2    1   13 am
   3    1    6 1
   4    2    3 1
   5    2   31 1
   6    2   32 1
   7    3    4 1
   8    3   33 1
   9    3   34 1
  10    4    5 1
  11    4    7 1
  12    5    6 1
  13    5   35 1
  14    5   36 1
  15    6   37 1
  16    6   38 1
  17    7    8 ar
  18    7   12 ar
  19    8    9 ar
  20    8   39 1
  21    9   10 ar
  22    9   40 1
  23   10   11 ar
  24   10   41 1
  25   11   12 ar
  26   11   42 1
  27   13   14 1
  28   13   15 2
  29   14   16 1
  30   14   18 1
  31   14   43 1
  32   16   17 1
  33   16   44 1
  34   16   45 1
  35   17   18 1
  36   17   19 am
  37   18   46 1
  38   18   47 1
  39   19   20 1
  40   19   26 2
  41   19   27 2
  42   20   21 ar
  43   20   25 ar
  44   21   22 ar
  45   21   48 1
  46   22   23 ar
  47   22   49 1
  48   23   24 ar
  49   23   50 1
  50   24   25 ar
  51   24   28 2
  52   25   30 2
  53   28   29 1
  54   29   30 1

#	End of record

