#	Name: ASD02039398
#	Creating user name:	WinNT
#	Creation time:	15. 06. 2019 20:18

#	Modifying user name:	WinNT
#	Modification time:	15. 06. 2019 20:18

#	Program:	/corina/corina34_cracker 3.40 0067  02.08.2006

@<TRIPOS>MOLECULE
ASD02039398
  51   53    0    0    0
SMALL
NO_CHARGES


@<TRIPOS>ATOM
   1 C1            -0.1272     1.5230    -0.1519 C.ar    
   2 C2            -0.1252     0.1390    -0.0543 C.ar    
   3 C3            -1.3219    -0.5487    -0.1404 C.ar    
   4 C4            -2.5057     1.4158    -0.4010 C.ar    
   5 C5            -1.3377     2.1712    -0.3281 C.ar    
   6 C6            -3.8108     2.0954    -0.5901 C.ar    
   7 C7             1.1588     2.3035    -0.0618 C.3     
   8 N8             1.7988     2.3439    -1.3790 N.am    
   9 C9             1.3651     3.3276    -2.3743 C.3     
  10 C10            2.7866     1.4761    -1.6752 C.2     
  11 C11            3.1631     0.4305    -0.7080 C.2     
  12 C12            4.1815    -0.4666    -0.8460 C.2     
  13 N13            2.5635     0.1881     0.4856 N.2     
  14 C14            3.1668    -0.8094     1.0648 C.2     
  15 N15            4.1768    -1.2402     0.2650 N.pl3   
  16 O16            3.3672     1.5562    -2.7409 O.2     
  17 C17            5.0956    -2.3445     0.5526 C.3     
  18 C18           -3.8578     3.4729    -0.7986 C.ar    
  19 N19           -2.4595     0.0926    -0.3137 N.ar    
  20 C20            2.5138     4.2937    -2.6707 C.3     
  21 C21            0.9603     2.6063    -3.6614 C.3     
  22 C22           -4.9920     1.3582    -0.5656 C.ar    
  23 C23           -6.2076     1.9988    -0.7428 C.ar    
  24 C24           -6.2460     3.3714    -0.9445 C.ar    
  25 C25           -5.0732     4.1029    -0.9742 C.ar    
  26 O26           -7.3625     1.2829    -0.7195 O.3     
  27 F27           -8.7118     2.9682     0.0997 F       
  28 C28           -8.5792     2.0080    -0.9090 C.3     
  29 F29           -8.5549     2.6419    -2.1560 F       
  30 H30            0.8022    -0.3962     0.0872 H       
  31 H31           -1.3239    -1.6260    -0.0648 H       
  32 H32           -1.3768     3.2482    -0.3993 H       
  33 H33            0.9446     3.3196     0.2694 H       
  34 H34            1.8269     1.8219     0.6521 H       
  35 H35            0.5124     3.8850    -1.9866 H       
  36 H36            4.8611    -0.5449    -1.6817 H       
  37 H37            2.9081    -1.2254     2.0274 H       
  38 H38            4.6793    -3.2740     0.1644 H       
  39 H39            6.0570    -2.1504     0.0772 H       
  40 H40            5.2340    -2.4306     1.6304 H       
  41 H41           -2.9434     4.0471    -0.8223 H       
  42 H42            3.3329     3.7505    -3.1421 H       
  43 H43            2.1646     5.0785    -3.3417 H       
  44 H44            2.8624     4.7403    -1.7395 H       
  45 H45            0.2075     1.8516    -3.4337 H       
  46 H46            0.5497     3.3273    -4.3683 H       
  47 H47            1.8353     2.1260    -4.0994 H       
  48 H48           -4.9605     0.2901    -0.4092 H       
  49 H49           -7.1946     3.8689    -1.0828 H       
  50 H50           -5.1085     5.1708    -1.1315 H       
  51 H51           -9.4229     1.3191    -0.8680 H       
@<TRIPOS>BOND
   1    1    2 ar
   2    1    7 1
   3    1    5 ar
   4    2    3 ar
   5    2   30 1
   6    3   19 ar
   7    3   31 1
   8    4    5 ar
   9    4    6 1
  10    4   19 ar
  11    5   32 1
  12    6   18 ar
  13    6   22 ar
  14    7    8 1
  15    7   33 1
  16    7   34 1
  17    8    9 1
  18    8   10 am
  19    9   20 1
  20    9   21 1
  21    9   35 1
  22   10   11 1
  23   10   16 2
  24   11   12 2
  25   11   13 1
  26   12   15 1
  27   12   36 1
  28   13   14 2
  29   14   15 1
  30   14   37 1
  31   15   17 1
  32   17   38 1
  33   17   39 1
  34   17   40 1
  35   18   25 ar
  36   18   41 1
  37   20   42 1
  38   20   43 1
  39   20   44 1
  40   21   45 1
  41   21   46 1
  42   21   47 1
  43   22   23 ar
  44   22   48 1
  45   23   24 ar
  46   23   26 1
  47   24   25 ar
  48   24   49 1
  49   25   50 1
  50   26   28 1
  51   27   28 1
  52   28   29 1
  53   28   51 1

#	End of record

