#	Name: ASD00060012
#	Creating user name:	WinNT
#	Creation time:	15. 06. 2019 18:29

#	Modifying user name:	WinNT
#	Modification time:	15. 06. 2019 18:29

#	Program:	/corina/corina34_cracker 3.40 0067  02.08.2006

@<TRIPOS>MOLECULE
ASD00060012
  39   41    0    0    0
SMALL
NO_CHARGES


@<TRIPOS>ATOM
   1 C1            -0.0169     1.3943     0.0097 C.ar    
   2 C2             0.0021    -0.0041     0.0020 C.ar    
   3 C3            -1.1847    -0.7060     0.0101 C.ar    
   4 C4            -2.3925    -0.0303     0.0252 C.ar    
   5 C5            -2.4196     1.3534     0.0329 C.ar    
   6 C6            -1.2414     2.0697     0.0309 C.ar    
   7 C7             1.2453     2.1512     0.0017 C.2     
   8 C8             1.6191     3.0054     1.1856 C.3     
   9 C9             0.9636     4.3811     1.0492 C.3     
  10 C10            1.3375     5.2353     2.2331 C.2     
  11 C11            2.0676     2.0804    -1.0655 C.2     
  12 C12            1.7048     1.2515    -2.2143 C.2     
  13 O13            0.6618     0.6260    -2.2077 O.2     
  14 O14            2.5271     1.1807    -3.2815 O.3     
  15 C15            2.5510     6.0432     2.3762 C.ar    
  16 C16            2.4615     6.6591     3.6377 C.ar    
  17 N17            1.2775     6.2476     4.2075 N.pl3   
  18 C18            0.6188     5.4048     3.3542 C.2     
  19 C19            3.6606     6.2801     1.5624 C.ar    
  20 C20            4.6551     7.1104     1.9964 C.ar    
  21 C21            4.5717     7.7203     3.2408 C.ar    
  22 C22            3.4857     7.5011     4.0593 C.ar    
  23 H23            0.9438    -0.5327    -0.0105 H       
  24 H24           -1.1717    -1.7859     0.0041 H       
  25 H25           -3.3187    -0.5858     0.0308 H       
  26 H26           -3.3661     1.8735     0.0444 H       
  27 H27           -1.2641     3.1494     0.0368 H       
  28 H28            1.2733     2.5275     2.1022 H       
  29 H29            2.7023     3.1211     1.2226 H       
  30 H30            1.3094     4.8591     0.1327 H       
  31 H31           -0.1196     4.2654     1.0123 H       
  32 H32            2.9938     2.6358    -1.0714 H       
  33 H33            2.2029     0.6086    -3.9905 H       
  34 H34            0.9564     6.5180     5.0820 H       
  35 H35           -0.3343     4.9388     3.5560 H       
  36 H36            3.7326     5.8086     0.5935 H       
  37 H37            5.5132     7.2934     1.3666 H       
  38 H38            5.3660     8.3738     3.5701 H       
  39 H39            3.4299     7.9805     5.0254 H       
@<TRIPOS>BOND
   1    1    2 ar
   2    1    7 1
   3    1    6 ar
   4    2    3 ar
   5    2   23 1
   6    3    4 ar
   7    3   24 1
   8    4    5 ar
   9    4   25 1
  10    5    6 ar
  11    5   26 1
  12    6   27 1
  13    7    8 1
  14    7   11 2
  15    8    9 1
  16    8   28 1
  17    8   29 1
  18    9   10 1
  19    9   30 1
  20    9   31 1
  21   10   15 1
  22   10   18 2
  23   11   12 1
  24   11   32 1
  25   12   13 2
  26   12   14 1
  27   14   33 1
  28   15   16 ar
  29   15   19 ar
  30   16   17 1
  31   16   22 ar
  32   17   18 1
  33   17   34 1
  34   18   35 1
  35   19   20 ar
  36   19   36 1
  37   20   21 ar
  38   20   37 1
  39   21   22 ar
  40   21   38 1
  41   22   39 1

#	End of record

