#	Name: ASD05740217
#	Creating user name:	WinNT
#	Creation time:	15. 06. 2019 21:03

#	Modifying user name:	WinNT
#	Modification time:	15. 06. 2019 21:03

#	Program:	/corina/corina34_cracker 3.40 0067  02.08.2006

@<TRIPOS>MOLECULE
ASD05740217
  74   79    0    0    0
SMALL
NO_CHARGES


@<TRIPOS>ATOM
   1 C1             0.8117    -0.8641     2.1892 C.3     
   2 N2            -0.2088    -0.4073     3.1429 N.3     
   3 C3            -1.4814    -0.8512     2.7665 C.ar    
   4 C4            -2.5877    -0.5246     3.5398 C.ar    
   5 C5            -3.8433    -0.9627     3.1684 C.ar    
   6 C6            -3.9998    -1.7303     2.0218 C.ar    
   7 C7            -2.8936    -2.0573     1.2487 C.ar    
   8 C8            -1.6389    -1.6136     1.6164 C.ar    
   9 N9            -5.2736    -2.1751     1.6453 N.pl3   
  10 C10           -6.3789    -1.3793     1.8752 C.ar    
  11 N11           -6.1953    -0.1524     2.3506 N.ar    
  12 N12           -7.5817    -1.8667     1.6083 N.ar    
  13 C13           -8.6654    -1.1303     1.8171 C.ar    
  14 C14           -8.5092     0.1774     2.3273 C.ar    
  15 C15           -7.2179     0.6494     2.5882 C.ar    
  16 N16           -9.9231    -1.6065     1.5503 N.am    
  17 C17          -11.0109    -0.8461     1.7674 C.2     
  18 C18          -10.9116     0.4653     2.2747 C.2     
  19 C19           -9.6943     0.9968     2.5610 C.2     
  20 C20          -10.0843    -2.9628     1.0206 C.3     
  21 O21          -12.1129    -1.3033     1.5184 O.2     
  22 C22          -10.1185    -3.9469     2.1614 C.ar    
  23 C23          -10.1561    -5.3044     1.9025 C.ar    
  24 C24            0.1181    -0.8419     4.5081 C.3     
  25 C25            1.4800    -0.2709     4.9100 C.3     
  26 N26            2.5006    -0.7277     3.9564 N.3     
  27 C27            2.1736    -0.2930     2.5912 C.3     
  28 C28            3.8365    -0.2617     4.3515 C.3     
  29 C29          -10.1875    -6.2069     2.9488 C.ar    
  30 C30          -10.1809    -5.7521     4.2544 C.ar    
  31 C31          -10.1425    -4.3950     4.5133 C.ar    
  32 C32          -10.1067    -3.4924     3.4667 C.ar    
  33 S33          -10.1644    -5.8840     0.2386 S.o2    
  34 N34          -11.5921    -5.3955    -0.4435 N.am    
  35 C35          -11.6531    -4.1991    -1.2981 C.3     
  36 C36          -12.8362    -6.1484    -0.2179 C.3     
  37 C37          -13.4883    -6.4233    -1.5778 C.3     
  38 O38          -13.6116    -5.1943    -2.2977 O.3     
  39 C39          -12.3652    -4.5729    -2.6032 C.3     
  40 O40           -9.1339    -5.1770    -0.4378 O.2     
  41 O41          -10.2175    -7.3024     0.3080 O.2     
  42 H42            0.8568    -1.9531     2.1988 H       
  43 H43            0.5540    -0.5192     1.1879 H       
  44 H44           -2.4659     0.0718     4.4320 H       
  45 H45           -4.7036    -0.7087     3.7698 H       
  46 H46           -3.0153    -2.6548     0.3573 H       
  47 H47           -0.7785    -1.8680     1.0151 H       
  48 H48           -5.3794    -3.0419     1.2231 H       
  49 H49           -7.0614     1.6440     2.9790 H       
  50 H50          -11.8057     1.0490     2.4367 H       
  51 H51           -9.6059     2.0003     2.9504 H       
  52 H52          -11.0164    -3.0252     0.4590 H       
  53 H53           -9.2475    -3.1979     0.3629 H       
  54 H54           -0.6453    -0.4809     5.1973 H       
  55 H55            0.1553    -1.9307     4.5440 H       
  56 H56            1.4349     0.8181     4.9005 H       
  57 H57            1.7377    -0.6157     5.9114 H       
  58 H58            2.9371    -0.6540     1.9020 H       
  59 H59            2.1364     0.7957     2.5553 H       
  60 H60            4.0806    -0.6534     5.3390 H       
  61 H61            4.5726    -0.6137     3.6288 H       
  62 H62            3.8475     0.8279     4.3800 H       
  63 H63          -10.2175    -7.2674     2.7465 H       
  64 H64          -10.2062    -6.4573     5.0720 H       
  65 H65          -10.1377    -4.0398     5.5332 H       
  66 H66          -10.0766    -2.4319     3.6689 H       
  67 H67          -12.2092    -3.4121    -0.7888 H       
  68 H68          -10.6431    -3.8526    -1.5172 H       
  69 H69          -12.6093    -7.0922     0.2779 H       
  70 H70          -13.5135    -5.5610     0.4020 H       
  71 H71          -12.8681    -7.1170    -2.1454 H       
  72 H72          -14.4766    -6.8574    -1.4265 H       
  73 H73          -12.5421    -3.6701    -3.1878 H       
  74 H74          -11.7451    -5.2626    -3.1757 H       
@<TRIPOS>BOND
   1    1    2 1
   2    1   27 1
   3    1   42 1
   4    1   43 1
   5    2    3 1
   6    2   24 1
   7    3    4 ar
   8    3    8 ar
   9    4    5 ar
  10    4   44 1
  11    5    6 ar
  12    5   45 1
  13    6    7 ar
  14    6    9 1
  15    7    8 ar
  16    7   46 1
  17    8   47 1
  18    9   10 1
  19    9   48 1
  20   10   11 ar
  21   10   12 ar
  22   11   15 ar
  23   12   13 ar
  24   13   14 ar
  25   13   16 1
  26   14   15 ar
  27   14   19 1
  28   15   49 1
  29   16   17 am
  30   16   20 1
  31   17   18 1
  32   17   21 2
  33   18   19 2
  34   18   50 1
  35   19   51 1
  36   20   22 1
  37   20   52 1
  38   20   53 1
  39   22   23 ar
  40   22   32 ar
  41   23   29 ar
  42   23   33 1
  43   24   25 1
  44   24   54 1
  45   24   55 1
  46   25   26 1
  47   25   56 1
  48   25   57 1
  49   26   27 1
  50   26   28 1
  51   27   58 1
  52   27   59 1
  53   28   60 1
  54   28   61 1
  55   28   62 1
  56   29   30 ar
  57   29   63 1
  58   30   31 ar
  59   30   64 1
  60   31   32 ar
  61   31   65 1
  62   32   66 1
  63   33   34 am
  64   33   40 2
  65   33   41 2
  66   34   35 1
  67   34   36 1
  68   35   39 1
  69   35   67 1
  70   35   68 1
  71   36   37 1
  72   36   69 1
  73   36   70 1
  74   37   38 1
  75   37   71 1
  76   37   72 1
  77   38   39 1
  78   39   73 1
  79   39   74 1

#	End of record

