#	Name: ASD01150878
#	Creating user name:	WinNT
#	Creation time:	15. 06. 2019 19:05

#	Modifying user name:	WinNT
#	Modification time:	15. 06. 2019 19:05

#	Program:	/corina/corina34_cracker 3.40 0067  02.08.2006

@<TRIPOS>MOLECULE
ASD01150878
  58   60    0    0    0
SMALL
NO_CHARGES


@<TRIPOS>ATOM
   1 C1            -0.0184     1.5028     0.0103 C.3     
   2 C2             0.0021    -0.0041     0.0020 C.2     
   3 N3             0.5145    -0.6768     1.0514 N.am    
   4 O4            -0.4426    -0.6113    -0.9489 O.2     
   5 C5             0.5334    -2.0677     1.0438 C.2     
   6 N6             0.0794    -2.8555     0.0661 N.2     
   7 C7             0.2544    -4.1208     0.3886 C.2     
   8 N8             0.8398    -4.1964     1.6116 N.pl3   
   9 C9             1.0334    -2.8852     2.0492 C.2     
  10 C10            1.6109    -2.4743     3.2677 C.2     
  11 O11            2.0454    -3.3962     4.1538 O.3     
  12 O12            1.7180    -1.2881     3.5214 O.2     
  13 C13            2.6199    -2.9088     5.3681 C.3     
  14 C14            3.0503    -4.0907     6.2391 C.3     
  15 S15           -0.2009    -5.4992    -0.6101 S.3     
  16 C16           -0.8981    -4.6350    -2.0395 C.3     
  17 C17            1.2034    -5.4196     2.3312 C.3     
  18 C18            2.6101    -5.8180     1.9661 C.ar    
  19 C19            3.6771    -5.3421     2.7050 C.ar    
  20 C20            4.9675    -5.7075     2.3700 C.ar    
  21 C21            5.1909    -6.5492     1.2964 C.ar    
  22 C22            4.1239    -7.0258     0.5581 C.ar    
  23 C23            2.8332    -6.6639     0.8957 C.ar    
  24 C24            1.3954     2.0244    -0.0004 C.ar    
  25 O25           -0.7206     1.9838    -1.1660 O.3     
  26 C26            2.0192     2.3551     1.1881 C.ar    
  27 C27            3.3160     2.8336     1.1783 C.ar    
  28 C28            3.9893     2.9810    -0.0200 C.ar    
  29 C29            3.3659     2.6494    -1.2084 C.ar    
  30 C30            2.0706     2.1668    -1.1982 C.ar    
  31 C31           -1.3681     3.1541    -1.0531 C.2     
  32 C32           -2.1192     3.7165    -2.2323 C.3     
  33 O33           -1.3487     3.7567    -0.0060 O.2     
  34 H34           -0.5286     1.8543     0.9071 H       
  35 H35            0.8702    -0.1912     1.8120 H       
  36 H36            3.4887    -2.2923     5.1371 H       
  37 H37            1.8828    -2.3114     5.9046 H       
  38 H38            2.1816    -4.7071     6.4701 H       
  39 H39            3.7874    -4.6880     5.7026 H       
  40 H40            3.4886    -3.7188     7.1653 H       
  41 H41           -1.7410    -4.0230    -1.7185 H       
  42 H42           -0.1352    -3.9972    -2.4861 H       
  43 H43           -1.2379    -5.3644    -2.7748 H       
  44 H44            1.1434    -5.2409     3.4048 H       
  45 H45            0.5163    -6.2202     2.0572 H       
  46 H46            3.5026    -4.6845     3.5437 H       
  47 H47            5.8012    -5.3351     2.9468 H       
  48 H48            6.1991    -6.8341     1.0342 H       
  49 H49            4.2984    -7.6831    -0.2809 H       
  50 H50            1.9995    -7.0362     0.3189 H       
  51 H51            1.4931     2.2400     2.1243 H       
  52 H52            3.8030     3.0927     2.1068 H       
  53 H53            5.0022     3.3555    -0.0277 H       
  54 H54            3.8918     2.7649    -2.1446 H       
  55 H55            1.5835     1.9077    -2.1267 H       
  56 H56           -2.0237     3.0389    -3.0807 H       
  57 H57           -3.1721     3.8278    -1.9730 H       
  58 H58           -1.7053     4.6897    -2.4962 H       
@<TRIPOS>BOND
   1    1    2 1
   2    1   24 1
   3    1   25 1
   4    1   34 1
   5    2    3 am
   6    2    4 2
   7    3    5 1
   8    3   35 1
   9    5    6 1
  10    5    9 2
  11    6    7 2
  12    7    8 1
  13    7   15 1
  14    8    9 1
  15    8   17 1
  16    9   10 1
  17   10   11 1
  18   10   12 2
  19   11   13 1
  20   13   14 1
  21   13   36 1
  22   13   37 1
  23   14   38 1
  24   14   39 1
  25   14   40 1
  26   15   16 1
  27   16   41 1
  28   16   42 1
  29   16   43 1
  30   17   18 1
  31   17   44 1
  32   17   45 1
  33   18   19 ar
  34   18   23 ar
  35   19   20 ar
  36   19   46 1
  37   20   21 ar
  38   20   47 1
  39   21   22 ar
  40   21   48 1
  41   22   23 ar
  42   22   49 1
  43   23   50 1
  44   24   26 ar
  45   24   30 ar
  46   25   31 1
  47   26   27 ar
  48   26   51 1
  49   27   28 ar
  50   27   52 1
  51   28   29 ar
  52   28   53 1
  53   29   30 ar
  54   29   54 1
  55   30   55 1
  56   31   32 1
  57   31   33 2
  58   32   56 1
  59   32   57 1
  60   32   58 1

#	End of record

