#	Name: ASD01880221
#	Creating user name:	WinNT
#	Creation time:	15. 06. 2019 19:40

#	Modifying user name:	WinNT
#	Modification time:	15. 06. 2019 19:40

#	Program:	/corina/corina34_cracker 3.40 0067  02.08.2006

@<TRIPOS>MOLECULE
ASD01880221
  51   53    0    0    0
SMALL
NO_CHARGES


@<TRIPOS>ATOM
   1 C1            -0.0184     1.5028     0.0103 C.3     
   2 C2             0.0021    -0.0041     0.0020 C.ar    
   3 C3             0.0229    -0.7016     1.1953 C.ar    
   4 C4             0.0417    -2.0838     1.1877 C.ar    
   5 C5             0.0392    -2.7685    -0.0132 C.ar    
   6 C6             0.0175    -2.0710    -1.2065 C.ar    
   7 C7            -0.0057    -0.6888    -1.1988 C.ar    
   8 C8             0.0607    -4.2753    -0.0215 C.3     
   9 N9             1.3560     2.0099    -0.0001 N.am    
  10 C10            2.1471     2.3124    -1.2027 C.3     
  11 C11            3.4948     2.8051    -0.6411 C.3     
  12 O12            3.3236     2.7294     0.8038 O.3     
  13 C13            2.0955     2.2792     1.0845 C.2     
  14 C14            3.7612     4.2480    -1.0747 C.3     
  15 O15            1.6905     2.1211     2.2191 O.2     
  16 N16           -1.3171    -4.7847    -0.0100 N.3     
  17 C17           -2.0168    -4.4383    -1.2544 C.3     
  18 C18           -1.3401    -6.2353     0.2206 C.3     
  19 C19           -2.7894    -6.7082     0.3501 C.3     
  20 C20           -2.8134    -8.2191     0.5903 C.3     
  21 C21           -2.1472    -8.9333    -0.5874 C.3     
  22 C22           -0.6978    -8.4604    -0.7168 C.3     
  23 C23           -0.6739    -6.9496    -0.9570 C.3     
  24 H24           -0.5455     1.8639    -0.8728 H       
  25 H25           -0.5286     1.8543     0.9071 H       
  26 H26            0.0248    -0.1667     2.1335 H       
  27 H27            0.0586    -2.6287     2.1200 H       
  28 H28            0.0159    -2.6059    -2.1447 H       
  29 H29           -0.0227    -0.1439    -2.1311 H       
  30 H30            0.5705    -4.6265    -0.9187 H       
  31 H31            0.5888    -4.6360     0.8612 H       
  32 H32            2.2883     1.4143    -1.8041 H       
  33 H33            1.6675     3.0958    -1.7895 H       
  34 H34            4.3053     2.1520    -0.9646 H       
  35 H35            2.9654     4.8924    -0.7013 H       
  36 H36            4.7172     4.5787    -0.6688 H       
  37 H37            3.7909     4.3007    -2.1631 H       
  38 H38           -1.4893    -4.8762    -2.1018 H       
  39 H39           -3.0344    -4.8274    -1.2194 H       
  40 H40           -2.0459    -3.3544    -1.3652 H       
  41 H41           -0.7993    -6.4659     1.1385 H       
  42 H42           -3.2641    -6.1994     1.1890 H       
  43 H43           -3.3302    -6.4776    -0.5678 H       
  44 H44           -2.2726    -8.4497     1.5081 H       
  45 H45           -3.8459    -8.5559     0.6825 H       
  46 H46           -2.1642   -10.0097    -0.4163 H       
  47 H47           -2.6879    -8.7027    -1.5052 H       
  48 H48           -0.1571    -8.6910     0.2010 H       
  49 H49           -0.2232    -8.9693    -1.5558 H       
  50 H50           -1.2147    -6.7190    -1.8749 H       
  51 H51            0.3587    -6.6127    -1.0493 H       
@<TRIPOS>BOND
   1    1    2 1
   2    1    9 1
   3    1   24 1
   4    1   25 1
   5    2    3 ar
   6    2    7 ar
   7    3    4 ar
   8    3   26 1
   9    4    5 ar
  10    4   27 1
  11    5    6 ar
  12    5    8 1
  13    6    7 ar
  14    6   28 1
  15    7   29 1
  16    8   16 1
  17    8   30 1
  18    8   31 1
  19    9   10 1
  20    9   13 am
  21   10   11 1
  22   10   32 1
  23   10   33 1
  24   11   12 1
  25   11   14 1
  26   11   34 1
  27   12   13 1
  28   13   15 2
  29   14   35 1
  30   14   36 1
  31   14   37 1
  32   16   17 1
  33   16   18 1
  34   17   38 1
  35   17   39 1
  36   17   40 1
  37   18   19 1
  38   18   23 1
  39   18   41 1
  40   19   20 1
  41   19   42 1
  42   19   43 1
  43   20   21 1
  44   20   44 1
  45   20   45 1
  46   21   22 1
  47   21   46 1
  48   21   47 1
  49   22   23 1
  50   22   48 1
  51   22   49 1
  52   23   50 1
  53   23   51 1

#	End of record

