#	Name: ASD05060068
#	Creating user name:	WinNT
#	Creation time:	15. 06. 2019 20:56

#	Modifying user name:	WinNT
#	Modification time:	15. 06. 2019 20:56

#	Program:	/corina/corina34_cracker 3.40 0067  02.08.2006

@<TRIPOS>MOLECULE
ASD05060068
  61   65    0    0    0
SMALL
NO_CHARGES


@<TRIPOS>ATOM
   1 C1             6.3448     1.7148     2.3364 C.2     
   2 C2             6.3678     0.2541     2.3763 C.2     
   3 N3             5.3098    -0.4795     2.4158 N.2     
   4 C4             3.9710     0.1208     2.4330 C.3     
   5 C5             3.8933     1.6665     2.4179 C.3     
   6 C6             5.2152     2.4044     2.3457 C.2     
   7 C7             3.2229    -0.6006     1.3342 C.2     
   8 C8             2.5452     0.1097     0.4101 C.2     
   9 C9             2.4935     1.5148     0.3891 C.2     
  10 C10            3.1034     2.2935     1.2872 C.2     
  11 O11            3.0487     3.6432     1.1983 O.3     
  12 C12            4.3038     4.3262     1.0915 C.3     
  13 C13            5.2028     3.9097     2.2636 C.3     
  14 C14            3.2349    -2.0648     1.2741 C.ar    
  15 C15            2.2921    -2.8307     1.9659 C.ar    
  16 C16            4.2322    -2.7893     0.4808 C.ar    
  17 C17            4.1849    -4.2037     0.4675 C.ar    
  18 N18            3.2440    -4.8454     1.1686 N.ar    
  19 C19            2.3414    -4.2128     1.8796 C.ar    
  20 C20            5.2146    -2.1177    -0.2524 C.ar    
  21 C21            6.1219    -2.8343    -0.9765 C.ar    
  22 C22            6.0801    -4.2257    -0.9938 C.ar    
  23 C23            5.1360    -4.9092    -0.2894 C.ar    
  24 C24            1.3201    -5.0216     2.6372 C.3     
  25 C25            1.2313    -2.1589     2.7992 C.3     
  26 O26            1.1099    -2.8357     4.0519 O.3     
  27 C27            0.7022    -1.9924     5.1310 C.3     
  28 C28           -0.6644    -1.3822     4.8133 C.3     
  29 C29            0.6058    -2.8183     6.4154 C.3     
  30 C30            1.7287    -0.8737     5.3199 C.3     
  31 C31           -0.0870    -2.2102     2.0707 C.2     
  32 O32           -0.9976    -2.8684     2.5151 O.2     
  33 O33           -0.2496    -1.5246     0.9282 O.3     
  34 H34            7.2821     2.2502     2.3026 H       
  35 H35            7.3285    -0.2393     2.3721 H       
  36 H36            3.5169    -0.1974     3.3714 H       
  37 H37            3.4186     1.9693     3.3512 H       
  38 H38            2.0121    -0.4311    -0.3578 H       
  39 H39            1.9286     1.9918    -0.3982 H       
  40 H40            4.7850     4.0597     0.1505 H       
  41 H41            4.1369     5.4029     1.1248 H       
  42 H42            4.8095     4.3238     3.1919 H       
  43 H43            6.2158     4.2757     2.0962 H       
  44 H44            5.2548    -1.0385    -0.2459 H       
  45 H45            6.8813    -2.3160    -1.5433 H       
  46 H46            6.8086    -4.7719    -1.5746 H       
  47 H47            5.1176    -5.9888    -0.3132 H       
  48 H48            1.6987    -5.2417     3.6353 H       
  49 H49            0.3934    -4.4534     2.7172 H       
  50 H50            1.1296    -5.9547     2.1069 H       
  51 H51            1.5100    -1.1196     2.9732 H       
  52 H52           -1.3957    -2.1792     4.6787 H       
  53 H53           -0.9754    -0.7389     5.6365 H       
  54 H54           -0.5957    -0.7938     3.8983 H       
  55 H55            1.5794    -3.2530     6.6417 H       
  56 H56            0.2949    -2.1750     7.2385 H       
  57 H57           -0.1255    -3.6153     6.2808 H       
  58 H58            1.7974    -0.2853     4.4049 H       
  59 H59            1.4178    -0.2304     6.1431 H       
  60 H60            2.7023    -1.3084     5.5463 H       
  61 H61           -1.1337    -1.5272     0.5367 H       
@<TRIPOS>BOND
   1    1    2 1
   2    1    6 2
   3    1   34 1
   4    2    3 2
   5    2   35 1
   6    3    4 1
   7    4    5 1
   8    4    7 1
   9    4   36 1
  10    5    6 1
  11    5   10 1
  12    5   37 1
  13    6   13 1
  14    7    8 2
  15    7   14 1
  16    8    9 1
  17    8   38 1
  18    9   10 2
  19    9   39 1
  20   10   11 1
  21   11   12 1
  22   12   13 1
  23   12   40 1
  24   12   41 1
  25   13   42 1
  26   13   43 1
  27   14   15 ar
  28   14   16 ar
  29   15   25 1
  30   15   19 ar
  31   16   17 ar
  32   16   20 ar
  33   17   18 ar
  34   17   23 ar
  35   18   19 ar
  36   19   24 1
  37   20   21 ar
  38   20   44 1
  39   21   22 ar
  40   21   45 1
  41   22   23 ar
  42   22   46 1
  43   23   47 1
  44   24   48 1
  45   24   49 1
  46   24   50 1
  47   25   26 1
  48   25   31 1
  49   25   51 1
  50   26   27 1
  51   27   28 1
  52   27   29 1
  53   27   30 1
  54   28   52 1
  55   28   53 1
  56   28   54 1
  57   29   55 1
  58   29   56 1
  59   29   57 1
  60   30   58 1
  61   30   59 1
  62   30   60 1
  63   31   32 2
  64   31   33 1
  65   33   61 1

#	End of record

