#	Name: ASD01148135
#	Creating user name:	WinNT
#	Creation time:	15. 06. 2019 19:02

#	Modifying user name:	WinNT
#	Modification time:	15. 06. 2019 19:02

#	Program:	/corina/corina34_cracker 3.40 0067  02.08.2006

@<TRIPOS>MOLECULE
ASD01148135
  41   43    0    0    0
SMALL
NO_CHARGES


@<TRIPOS>ATOM
   1 C1            -0.0889     1.6813     0.0327 C.2     
   2 C2             0.0476     0.2940    -0.1416 C.2     
   3 C3            -1.0618    -0.4909    -0.1946 C.2     
   4 C4            -2.3350     0.1030    -0.0733 C.2     
   5 N5            -2.4362     1.4601     0.0959 N.pl3   
   6 C6            -1.3136     2.2351     0.1528 C.2     
   7 N7            -3.5578    -0.4065    -0.0880 N.2     
   8 C8            -4.4490     0.5852     0.0674 C.2     
   9 C9            -3.7671     1.7587     0.1839 C.2     
  10 C10           -5.9244     0.4299     0.1052 C.ar    
  11 C11           -6.7403     1.3382    -0.5663 C.ar    
  12 C12           -6.4981    -0.6280     0.8077 C.ar    
  13 C13           -7.8705    -0.7681     0.8399 C.ar    
  14 C14           -8.6771     0.1401     0.1759 C.ar    
  15 C15           -8.1117     1.1895    -0.5281 C.ar    
  16 Cl16         -10.4030    -0.0416     0.2202 Cl      
  17 C17            1.1381     2.5541     0.0919 C.3     
  18 C18           -4.3670     3.1281     0.3739 C.3     
  19 C19           -4.4950     3.8105    -0.9636 C.2     
  20 N20           -5.0100     5.0536    -1.0393 N.am    
  21 O21           -4.1346     3.2409    -1.9719 O.2     
  22 C22           -5.1345     5.7170    -2.3396 C.3     
  23 C23           -5.4454     5.7416     0.1786 C.3     
  24 H24            1.0291    -0.1471    -0.2334 H       
  25 H25           -0.9686    -1.5585    -0.3286 H       
  26 H26           -1.4070     3.3028     0.2864 H       
  27 H27           -6.3002     2.1573    -1.1155 H       
  28 H28           -5.8696    -1.3372     1.3257 H       
  29 H29           -8.3161    -1.5879     1.3838 H       
  30 H30           -8.7451     1.8955    -1.0446 H       
  31 H31            2.0293     1.9361    -0.0177 H       
  32 H32            1.1024     3.2864    -0.7148 H       
  33 H33            1.1702     3.0713     1.0508 H       
  34 H34           -5.3528     3.0329     0.8291 H       
  35 H35           -3.7225     3.7201     1.0237 H       
  36 H36           -6.1066     5.4847    -2.7744 H       
  37 H37           -5.0437     6.7952    -2.2076 H       
  38 H38           -4.3457     5.3647    -3.0042 H       
  39 H39           -5.2762     5.0963     1.0406 H       
  40 H40           -4.8768     6.6638     0.2980 H       
  41 H41           -6.5071     5.9765     0.1034 H       
@<TRIPOS>BOND
   1    1    2 1
   2    1   17 1
   3    1    6 2
   4    2    3 2
   5    2   24 1
   6    3    4 1
   7    3   25 1
   8    4    5 1
   9    4    7 2
  10    5    6 1
  11    5    9 1
  12    6   26 1
  13    7    8 1
  14    8    9 2
  15    8   10 1
  16    9   18 1
  17   10   11 ar
  18   10   12 ar
  19   11   15 ar
  20   11   27 1
  21   12   13 ar
  22   12   28 1
  23   13   14 ar
  24   13   29 1
  25   14   15 ar
  26   14   16 1
  27   15   30 1
  28   17   31 1
  29   17   32 1
  30   17   33 1
  31   18   19 1
  32   18   34 1
  33   18   35 1
  34   19   20 am
  35   19   21 2
  36   20   22 1
  37   20   23 1
  38   22   36 1
  39   22   37 1
  40   22   38 1
  41   23   39 1
  42   23   40 1
  43   23   41 1

#	End of record

