#	Name: ASD01230794
#	Creating user name:	WinNT
#	Creation time:	15. 06. 2019 19:15

#	Modifying user name:	WinNT
#	Modification time:	15. 06. 2019 19:15

#	Program:	/corina/corina34_cracker 3.40 0067  02.08.2006

@<TRIPOS>MOLECULE
ASD01230794
  27   27    0    0    0
SMALL
NO_CHARGES


@<TRIPOS>ATOM
   1 C1            -0.0180     1.4730     0.0101 C.2     
   2 C2             0.0021    -0.0041     0.0020 C.ar    
   3 C3             1.2188    -0.6888    -0.0133 C.ar    
   4 C4             1.2303    -2.0682    -0.0203 C.ar    
   5 C5             0.0396    -2.7731    -0.0127 C.ar    
   6 C6            -1.1697    -2.1009     0.0020 C.ar    
   7 C7            -1.1956    -0.7217     0.0154 C.ar    
   8 O8             1.0256     2.0946     0.0035 O.2     
   9 O9            -1.1936     2.1307     0.0193 O.3     
  10 C10            0.0601    -4.2800    -0.0210 C.3     
  11 C11           -0.6422    -4.8064     1.2322 C.3     
  12 C12           -0.6661    -4.7931    -1.2661 C.3     
  13 C13           -1.1373     3.5816     0.0269 C.3     
  14 H14            2.1488    -0.1398    -0.0199 H       
  15 H15            2.1707    -2.5992    -0.0321 H       
  16 H16           -2.0953    -2.6572     0.0071 H       
  17 H17           -2.1401    -0.1983     0.0318 H       
  18 H18            1.0925    -4.6293    -0.0327 H       
  19 H19           -1.6747    -4.4571     1.2440 H       
  20 H20           -0.6274    -5.8963     1.2263 H       
  21 H21           -0.1249    -4.4409     2.1193 H       
  22 H22           -0.1658    -4.4180    -2.1589 H       
  23 H23           -0.6513    -5.8829    -1.2721 H       
  24 H24           -1.6985    -4.4438    -1.2544 H       
  25 H25           -0.6055     3.9199     0.9162 H       
  26 H26           -0.6140     3.9295    -0.8637 H       
  27 H27           -2.1501     3.9844     0.0339 H       
@<TRIPOS>BOND
   1    1    2 1
   2    1    8 2
   3    1    9 1
   4    2    3 ar
   5    2    7 ar
   6    3    4 ar
   7    3   14 1
   8    4    5 ar
   9    4   15 1
  10    5    6 ar
  11    5   10 1
  12    6    7 ar
  13    6   16 1
  14    7   17 1
  15    9   13 1
  16   10   11 1
  17   10   12 1
  18   10   18 1
  19   11   19 1
  20   11   20 1
  21   11   21 1
  22   12   22 1
  23   12   23 1
  24   12   24 1
  25   13   25 1
  26   13   26 1
  27   13   27 1

#	End of record

