#	Name: ASD03082254
#	Creating user name:	WinNT
#	Creation time:	15. 06. 2019 20:27

#	Modifying user name:	WinNT
#	Modification time:	15. 06. 2019 20:27

#	Program:	/corina/corina34_cracker 3.40 0067  02.08.2006

@<TRIPOS>MOLECULE
ASD03082254
  53   56    0    0    0
SMALL
NO_CHARGES


@<TRIPOS>ATOM
   1 N1            -0.1037     1.0670    -0.0998 N.pl3   
   2 N2            -0.1138    -0.3360    -0.1588 N.2     
   3 C3             1.1151    -0.7376     0.0733 C.2     
   4 N4             1.8906     0.3288     0.2732 N.2     
   5 C5             1.1702     1.4277     0.1722 C.2     
   6 N6             1.5409    -2.0669     0.1059 N.pl3   
   7 C7             2.9011    -2.3624     0.2439 C.ar    
   8 C8             3.2971    -3.5731     0.7979 C.ar    
   9 C9             4.6405    -3.8627     0.9333 C.ar    
  10 C10            5.5927    -2.9472     0.5171 C.ar    
  11 C11            5.2003    -1.7398    -0.0353 C.ar    
  12 C12            3.8576    -1.4483    -0.1779 C.ar    
  13 C13            5.0708    -5.1758     1.5347 C.3     
  14 F14            3.9398    -5.9257     1.8751 F       
  15 F15            5.8382    -5.8854     0.6048 F       
  16 F16            5.8337    -4.9353     2.6824 F       
  17 C17            3.4524     4.4093     0.3605 C.ar    
  18 C18            3.0315     3.1044     0.2077 C.ar    
  19 C19            1.6684     2.8127     0.3285 C.ar    
  20 C20            0.7894     3.8662     0.6007 C.ar    
  21 C21            1.2967     5.1422     0.7384 C.ar    
  22 N22            2.5895     5.3739     0.6168 N.ar    
  23 C23           -1.2459     1.9623    -0.2999 C.3     
  24 F24            6.9064    -3.2324     0.6509 F       
  25 N25           -1.9162     2.1926     0.9823 N.am    
  26 C26           -3.0010     2.9902     1.0419 C.2     
  27 O27           -3.6170     3.2019     2.2202 O.3     
  28 O28           -3.4230     3.5183     0.0322 O.2     
  29 C29            4.9184     4.7364     0.2391 C.3     
  30 C30           -4.7792     4.0722     2.2094 C.3     
  31 C31           -5.3399     4.1919     3.6280 C.3     
  32 C32            5.7852     4.5701     1.4889 C.3     
  33 C33            5.9113     3.5761     0.3326 C.3     
  34 H34            0.8934    -2.7854     0.0328 H       
  35 H35            2.5549    -4.2872     1.1229 H       
  36 H36            5.9445    -1.0272    -0.3588 H       
  37 H37            3.5519    -0.5084    -0.6134 H       
  38 H38            3.7434     2.3199    -0.0024 H       
  39 H39           -0.2703     3.6839     0.7013 H       
  40 H40            0.6261     5.9624     0.9483 H       
  41 H41           -0.8963     2.9128    -0.7030 H       
  42 H42           -1.9466     1.5066    -0.9995 H       
  43 H43           -1.5794     1.7710     1.7883 H       
  44 H44            5.1629     5.5552    -0.4377 H       
  45 H45           -4.4906     5.0593     1.8484 H       
  46 H46           -5.5409     3.6532     1.5518 H       
  47 H47           -6.2124     4.8452     3.6199 H       
  48 H48           -5.6285     3.2047     3.9890 H       
  49 H49           -4.5783     4.6109     4.2855 H       
  50 H50            6.6002     5.2792     1.6341 H       
  51 H51            5.2951     4.2241     2.3989 H       
  52 H52            5.5041     2.5761     0.4820 H       
  53 H53            6.8092     3.6312    -0.2828 H       
@<TRIPOS>BOND
   1    1    2 1
   2    1    5 1
   3    1   23 1
   4    2    3 2
   5    3    4 1
   6    3    6 1
   7    4    5 2
   8    5   19 1
   9    6    7 1
  10    6   34 1
  11    7    8 ar
  12    7   12 ar
  13    8    9 ar
  14    8   35 1
  15    9   10 ar
  16    9   13 1
  17   10   11 ar
  18   10   24 1
  19   11   12 ar
  20   11   36 1
  21   12   37 1
  22   13   14 1
  23   13   15 1
  24   13   16 1
  25   17   18 ar
  26   17   22 ar
  27   17   29 1
  28   18   19 ar
  29   18   38 1
  30   19   20 ar
  31   20   21 ar
  32   20   39 1
  33   21   22 ar
  34   21   40 1
  35   23   25 1
  36   23   41 1
  37   23   42 1
  38   25   26 am
  39   25   43 1
  40   26   27 1
  41   26   28 2
  42   27   30 1
  43   29   32 1
  44   29   33 1
  45   29   44 1
  46   30   31 1
  47   30   45 1
  48   30   46 1
  49   31   47 1
  50   31   48 1
  51   31   49 1
  52   32   33 1
  53   32   50 1
  54   32   51 1
  55   33   52 1
  56   33   53 1

#	End of record

