#	Name: ASD00450041
#	Creating user name:	WinNT
#	Creation time:	15. 06. 2019 18:36

#	Modifying user name:	WinNT
#	Modification time:	15. 06. 2019 18:36

#	Program:	/corina/corina34_cracker 3.40 0067  02.08.2006

@<TRIPOS>MOLECULE
ASD00450041
  42   45    0    0    0
SMALL
NO_CHARGES


@<TRIPOS>ATOM
   1 C1            -0.1956     1.4550     0.2877 C.ar    
   2 C2            -0.3550     0.0609     0.3143 C.ar    
   3 C3             0.7517    -0.7552     0.4747 C.ar    
   4 C4             2.0147    -0.2009     0.6088 C.ar    
   5 C5             2.1845     1.1730     0.5842 C.ar    
   6 C6             1.0892     2.0085     0.4245 C.ar    
   7 C7            -1.3636     2.3304     0.1118 C.2     
   8 O8            -1.9780     2.7274     1.0838 O.2     
   9 N9            -1.7537     2.6929    -1.1263 N.am    
  10 N10            1.2612     3.3869     0.3995 N.pl3   
  11 C11            2.3414     3.9693     1.0712 C.ar    
  12 C12            2.7582     5.2540     0.7387 C.ar    
  13 C13            2.9961     3.2686     2.0753 C.ar    
  14 C14            4.0620     3.8463     2.7373 C.ar    
  15 C15            4.4784     5.1220     2.4015 C.ar    
  16 C16            3.8260     5.8263     1.4055 C.ar    
  17 F17            3.0877    -1.0067     0.7653 F       
  18 F18            2.1211     5.9414    -0.2343 F       
  19 I19            6.0957     5.9926     3.4092 I       
  20 O20           -1.5898    -0.4852     0.1837 O.3     
  21 C21           -1.7115    -1.8309     0.3332 C.ar    
  22 C22           -1.6985    -2.3905     1.6011 C.ar    
  23 C23           -1.8233    -3.7627     1.7491 C.ar    
  24 C24           -1.8545    -2.6430    -0.7844 C.ar    
  25 C25           -1.9791    -4.0104    -0.6392 C.ar    
  26 N26           -1.8462    -4.6069     2.8590 N.am    
  27 C27           -1.9921    -5.8679     2.4062 C.2     
  28 O28           -2.0619    -5.8564     1.0660 O.3     
  29 C29           -1.9616    -4.5774     0.6256 C.ar    
  30 O30           -2.0507    -6.8621     3.1038 O.2     
  31 H31            0.6303    -1.8282     0.4956 H       
  32 H32            3.1729     1.5953     0.6896 H       
  33 H33           -1.2638     2.3763    -1.9013 H       
  34 H34           -2.5243     3.2704    -1.2423 H       
  35 H35            0.6324     3.9454    -0.0837 H       
  36 H36            2.6719     2.2726     2.3388 H       
  37 H37            4.5709     3.3012     3.5185 H       
  38 H38            4.1508     6.8237     1.1484 H       
  39 H39           -1.5911    -1.7594     2.4709 H       
  40 H40           -1.8688    -2.2032    -1.7707 H       
  41 H41           -2.0898    -4.6382    -1.5111 H       
  42 H42           -1.7709    -4.3360     3.7873 H       
@<TRIPOS>BOND
   1    1    2 ar
   2    1    6 ar
   3    1    7 1
   4    2    3 ar
   5    2   20 1
   6    3    4 ar
   7    3   31 1
   8    4    5 ar
   9    4   17 1
  10    5    6 ar
  11    5   32 1
  12    6   10 1
  13    7    8 2
  14    7    9 am
  15    9   33 1
  16    9   34 1
  17   10   11 1
  18   10   35 1
  19   11   13 ar
  20   11   12 ar
  21   12   16 ar
  22   12   18 1
  23   13   14 ar
  24   13   36 1
  25   14   15 ar
  26   14   37 1
  27   15   16 ar
  28   15   19 1
  29   16   38 1
  30   20   21 1
  31   21   22 ar
  32   21   24 ar
  33   22   23 ar
  34   22   39 1
  35   23   29 ar
  36   23   26 1
  37   24   25 ar
  38   24   40 1
  39   25   29 ar
  40   25   41 1
  41   26   27 am
  42   26   42 1
  43   27   28 1
  44   27   30 2
  45   28   29 1

#	End of record

