#	Name: ASD08070635
#	Creating user name:	WinNT
#	Creation time:	15. 06. 2019 21:15

#	Modifying user name:	WinNT
#	Modification time:	15. 06. 2019 21:15

#	Program:	/corina/corina34_cracker 3.40 0067  02.08.2006

@<TRIPOS>MOLECULE
ASD08070635
  44   44    0    0    0
SMALL
NO_CHARGES


@<TRIPOS>ATOM
   1 C1            -0.0184     1.5028     0.0103 C.2     
   2 C2             0.0021    -0.0041     0.0020 C.3     
   3 C3            -0.7241    -0.5171    -1.2431 C.3     
   4 C4            -0.8126    -2.0436    -1.1892 C.3     
   5 C5            -1.6900    -2.4622    -0.0077 C.3     
   6 O6             1.0197     2.1211     0.0037 O.2     
   7 O7            -1.1898     2.1580     0.0194 O.3     
   8 C8             2.0717    -0.5994     1.1419 C.2     
   9 C9             3.4723    -1.0732     1.1260 C.ar    
  10 C10            4.1801    -1.2043     2.3205 C.ar    
  11 C11            5.4934    -1.6498     2.2975 C.ar    
  12 C12            6.0996    -1.9641     1.0858 C.ar    
  13 C13            5.3976    -1.8340    -0.0973 C.ar    
  14 C14            4.0884    -1.3964    -0.0842 C.ar    
  15 O15            1.5355    -0.3233     2.1972 O.2     
  16 N16            1.3897    -0.4735    -0.0138 N.am    
  17 S17            6.3938    -1.8172     3.8028 S.3     
  18 C18            5.1913    -1.2972     5.0575 C.3     
  19 C19            7.5268    -2.4475     1.0630 C.3     
  20 C20           -1.4263    -2.5652    -2.4901 C.3     
  21 C21           -1.1335     3.6089     0.0270 C.3     
  22 H22           -0.4983    -0.3791     0.8948 H       
  23 H23           -1.7288    -0.0959    -1.2772 H       
  24 H24           -0.1736    -0.2164    -2.1345 H       
  25 H25            0.1866    -2.4614    -1.0657 H       
  26 H26           -1.7530    -3.5497     0.0307 H       
  27 H27           -1.2528    -2.0906     0.9191 H       
  28 H28           -2.6891    -2.0444    -0.1312 H       
  29 H29            3.7074    -0.9593     3.2602 H       
  30 H30            5.8735    -2.0795    -1.0352 H       
  31 H31            3.5420    -1.3004    -1.0108 H       
  32 H32            1.8177    -0.6938    -0.8559 H       
  33 H33            5.6467    -1.3612     6.0458 H       
  34 H34            4.8860    -0.2689     4.8640 H       
  35 H35            4.3187    -1.9491     5.0166 H       
  36 H36            7.5436    -3.5343     1.1454 H       
  37 H37            7.9973    -2.1468     0.1269 H       
  38 H38            8.0716    -2.0112     1.9002 H       
  39 H39           -0.8012    -2.2670    -3.3318 H       
  40 H40           -1.4893    -3.6527    -2.4517 H       
  41 H41           -2.4254    -2.1474    -2.6135 H       
  42 H42           -0.6102     3.9569    -0.8636 H       
  43 H43           -2.1463     4.0118     0.0340 H       
  44 H44           -0.6017     3.9472     0.9164 H       
@<TRIPOS>BOND
   1    1    2 1
   2    1    6 2
   3    1    7 1
   4    2    3 1
   5    2   16 1
   6    2   22 1
   7    3    4 1
   8    3   23 1
   9    3   24 1
  10    4    5 1
  11    4   20 1
  12    4   25 1
  13    5   26 1
  14    5   27 1
  15    5   28 1
  16    7   21 1
  17    8    9 1
  18    8   15 2
  19    8   16 am
  20    9   10 ar
  21    9   14 ar
  22   10   11 ar
  23   10   29 1
  24   11   12 ar
  25   11   17 1
  26   12   13 ar
  27   12   19 1
  28   13   14 ar
  29   13   30 1
  30   14   31 1
  31   16   32 1
  32   17   18 1
  33   18   33 1
  34   18   34 1
  35   18   35 1
  36   19   36 1
  37   19   37 1
  38   19   38 1
  39   20   39 1
  40   20   40 1
  41   20   41 1
  42   21   42 1
  43   21   43 1
  44   21   44 1

#	End of record

