#	Name: ASD01120306
#	Creating user name:	WinNT
#	Creation time:	15. 06. 2019 18:59

#	Modifying user name:	WinNT
#	Modification time:	15. 06. 2019 18:59

#	Program:	/corina/corina34_cracker 3.40 0067  02.08.2006

@<TRIPOS>MOLECULE
ASD01120306
  35   37    0    0    0
SMALL
NO_CHARGES


@<TRIPOS>ATOM
   1 O1            -3.8238     0.3818    -2.9516 O.2     
   2 N2            -3.8753     1.5765    -2.7199 N.pl3   
   3 O3            -4.5388     2.3072    -3.4336 O.2     
   4 C4            -3.1364     2.1394    -1.5675 C.ar    
   5 C5            -2.3880     1.3083    -0.7544 C.ar    
   6 C6            -1.6956     1.8301     0.3233 C.ar    
   7 C7            -1.7501     3.1836     0.5910 C.ar    
   8 C8            -2.5012     4.0217    -0.2240 C.ar    
   9 C9            -3.1907     3.4950    -1.3088 C.ar    
  10 N10           -2.5586     5.3915     0.0440 N.pl3   
  11 C11           -3.7709     6.0694    -0.0517 C.ar    
  12 C12           -4.9456     5.3693    -0.2581 C.ar    
  13 C13           -6.1551     6.0414    -0.3538 C.ar    
  14 C14           -6.2090     7.4139    -0.2455 C.ar    
  15 C15           -5.0427     8.1448    -0.0371 C.ar    
  16 C16           -3.8101     7.4720     0.0669 C.ar    
  17 C17           -2.8166     8.4550     0.2735 C.2     
  18 C18           -3.4315     9.6688     0.2921 C.2     
  19 N19           -4.7910     9.4890     0.1074 N.pl3   
  20 C20           -2.7614    10.9599     0.4819 C.2     
  21 O21           -1.5565    11.0021     0.6399 O.2     
  22 O22           -3.4818    12.1001     0.4812 O.3     
  23 N23           -7.5097     8.1128    -0.3515 N.pl3   
  24 O24           -8.5309     7.4745    -0.5342 O.2     
  25 O25           -7.5587     9.3261    -0.2559 O.2     
  26 H26           -2.3442     0.2492    -0.9612 H       
  27 H27           -1.1120     1.1781     0.9563 H       
  28 H28           -1.2098     3.5903     1.4331 H       
  29 H29           -3.7755     4.1436    -1.9443 H       
  30 H30           -1.7538     5.8704     0.2966 H       
  31 H31           -4.9210     4.2931    -0.3456 H       
  32 H32           -7.0650     5.4825    -0.5155 H       
  33 H33           -1.7586     8.2753     0.3948 H       
  34 H34           -5.4558    10.1948     0.0794 H       
  35 H35           -2.9961    12.9264     0.6099 H       
@<TRIPOS>BOND
   1    1    2 2
   2    2    3 2
   3    2    4 1
   4    4    5 ar
   5    4    9 ar
   6    5    6 ar
   7    5   26 1
   8    6    7 ar
   9    6   27 1
  10    7    8 ar
  11    7   28 1
  12    8    9 ar
  13    8   10 1
  14    9   29 1
  15   10   11 1
  16   10   30 1
  17   11   12 ar
  18   11   16 ar
  19   12   13 ar
  20   12   31 1
  21   13   14 ar
  22   13   32 1
  23   14   15 ar
  24   14   23 1
  25   15   16 ar
  26   15   19 1
  27   16   17 1
  28   17   18 2
  29   17   33 1
  30   18   19 1
  31   18   20 1
  32   19   34 1
  33   20   21 2
  34   20   22 1
  35   22   35 1
  36   23   24 2
  37   23   25 2

#	End of record

