#	Name: ASD07030049
#	Creating user name:	WinNT
#	Creation time:	15. 06. 2019 21:08

#	Modifying user name:	WinNT
#	Modification time:	15. 06. 2019 21:08

#	Program:	/corina/corina34_cracker 3.40 0067  02.08.2006

@<TRIPOS>MOLECULE
ASD07030049
  40   40    0    0    0
SMALL
NO_CHARGES


@<TRIPOS>ATOM
   1 C1            -0.0187     1.5258     0.0104 C.3     
   2 C2             0.0021    -0.0041     0.0020 C.3     
   3 N3             1.3595     2.0342     0.0000 N.3     
   4 N4            -1.3761    -0.5125     0.0124 N.3     
   5 C5            -1.3954    -1.9814     0.0047 C.3     
   6 C6            -2.6290    -2.6748     0.5864 C.3     
   7 C7            -2.3959    -2.6699    -0.9257 C.3     
   8 C8            -2.4161    -3.9743     1.3191 C.ar    
   9 C9            -2.7809    -4.0866     2.6477 C.ar    
  10 C10           -2.5855    -5.2786     3.3198 C.ar    
  11 C11           -2.0258    -6.3586     2.6631 C.ar    
  12 C12           -1.6618    -6.2467     1.3343 C.ar    
  13 C13           -1.8612    -5.0560     0.6610 C.ar    
  14 C14            1.3788     3.5031     0.0077 C.3     
  15 C15            2.6233     4.1903     0.5731 C.3     
  16 C16            2.3614     4.2017    -0.9343 C.3     
  17 H17           -0.5459     1.8868    -0.8726 H       
  18 H18           -0.5289     1.8773     0.9072 H       
  19 H19            0.5123    -0.3556    -0.8948 H       
  20 H20            0.5293    -0.3651     0.8851 H       
  21 H21            1.8883     1.6616     0.7744 H       
  22 H22           -1.8899    -0.1483     0.8007 H       
  23 H23           -0.4298    -2.4652     0.1520 H       
  24 H24           -3.4263    -2.0410     0.9748 H       
  25 H25           -3.0398    -2.0330    -1.5322 H       
  26 H26           -2.0885    -3.6067    -1.3906 H       
  27 H27           -3.2182    -3.2428     3.1607 H       
  28 H28           -2.8699    -5.3661     4.3580 H       
  29 H29           -1.8725    -7.2897     3.1884 H       
  30 H30           -1.2242    -7.0904     0.8213 H       
  31 H31           -1.5802    -4.9696    -0.3783 H       
  32 H32            0.4162     3.9850     0.1789 H       
  33 H33            2.4796     5.1245     1.1160 H       
  34 H34            3.4278     3.5525     0.9394 H       
  35 H35            2.9936     3.5713    -1.5597 H       
  36 H36            2.0453     5.1433    -1.3831 H       
  37 Cl37           8.4278    10.1433     9.3580 Cl      
  38 H38            8.4278    11.5133     9.3580 H       
  39 Cl39          13.4278    16.5133    14.3580 Cl      
  40 H40           13.4278    17.8833    14.3580 H       
@<TRIPOS>BOND
   1    1    2 1
   2    1    3 1
   3    1   17 1
   4    1   18 1
   5    2    4 1
   6    2   19 1
   7    2   20 1
   8    3   14 1
   9    3   21 1
  10    4    5 1
  11    4   22 1
  12    5    6 1
  13    5    7 1
  14    5   23 1
  15    6    7 1
  16    6    8 1
  17    6   24 1
  18    7   25 1
  19    7   26 1
  20    8    9 ar
  21    8   13 ar
  22    9   10 ar
  23    9   27 1
  24   10   11 ar
  25   10   28 1
  26   11   12 ar
  27   11   29 1
  28   12   13 ar
  29   12   30 1
  30   13   31 1
  31   14   15 1
  32   14   16 1
  33   14   32 1
  34   15   16 1
  35   15   33 1
  36   15   34 1
  37   16   35 1
  38   16   36 1
  39   37   38 1
  40   39   40 1

#	End of record

