#	Name: ASD01910861
#	Creating user name:	WinNT
#	Creation time:	15. 06. 2019 19:56

#	Modifying user name:	WinNT
#	Modification time:	15. 06. 2019 19:56

#	Program:	/corina/corina34_cracker 3.40 0067  02.08.2006

@<TRIPOS>MOLECULE
ASD01910861
  51   54    0    0    0
SMALL
NO_CHARGES


@<TRIPOS>ATOM
   1 C1            -0.1036     1.7575     0.3948 C.ar    
   2 C2            -0.0085     0.3725     0.4098 C.ar    
   3 C3            -1.1745    -0.3700     0.3561 C.ar    
   4 C4            -2.3958     0.2924     0.2892 C.ar    
   5 N5            -2.4449     1.6156     0.2766 N.ar    
   6 C6            -1.3496     2.3491     0.3331 C.ar    
   7 N7            -3.5752    -0.4413     0.2348 N.3     
   8 C8            -4.7443     0.4457     0.1690 C.3     
   9 C9            -6.0044    -0.3925    -0.0716 C.3     
  10 N10           -6.0742    -1.4379     0.9606 N.am    
  11 C11           -4.8883    -2.2798     1.1797 C.3     
  12 C12           -3.6722    -1.3673     1.3710 C.3     
  13 C13           -7.1954    -1.6199     1.6861 C.2     
  14 C14           -7.2890    -2.7540     2.6304 C.ar    
  15 C15           -7.9070    -2.5823     3.8710 C.ar    
  16 C16           -7.9954    -3.6398     4.7551 C.ar    
  17 C17           -7.4744    -4.8732     4.4202 C.ar    
  18 C18           -6.8528    -5.0598     3.1814 C.ar    
  19 C19           -6.7660    -3.9973     2.2820 C.ar    
  20 C20           -6.3117    -6.3397     2.8352 C.1     
  21 O21           -8.1295    -0.8518     1.5642 O.2     
  22 C22           -5.8681    -7.3889     2.5513 C.1     
  23 C23           -5.3270    -8.6687     2.2051 C.ar    
  24 N24           -4.7374    -8.8389     1.0256 N.ar    
  25 C25           -4.2273   -10.0003     0.6707 C.ar    
  26 C26           -4.2872   -11.0917     1.5178 C.ar    
  27 C27           -4.8940   -10.9592     2.7598 C.ar    
  28 C28           -5.4174    -9.7284     3.1116 C.ar    
  29 C29            1.1401     2.6066     0.4516 C.3     
  30 F30            1.5918     2.8596    -0.8481 F       
  31 F31            0.8492     3.8178     1.0883 F       
  32 F32            2.1340     1.9304     1.1673 F       
  33 H33            0.9542    -0.1143     0.4618 H       
  34 H34           -1.1370    -1.4493     0.3655 H       
  35 H35           -1.4281     3.4262     0.3206 H       
  36 H36           -4.8425     0.9884     1.1091 H       
  37 H37           -4.6174     1.1547    -0.6492 H       
  38 H38           -6.8861     0.2451    -0.0073 H       
  39 H39           -5.9542    -0.8543    -1.0577 H       
  40 H40           -5.0321    -2.8900     2.0714 H       
  41 H41           -4.7308    -2.9230     0.3140 H       
  42 H42           -2.7676    -1.9731     1.4247 H       
  43 H43           -3.7853    -0.7993     2.2945 H       
  44 H44           -8.3167    -1.6199     4.1400 H       
  45 H45           -8.4742    -3.5008     5.7131 H       
  46 H46           -7.5466    -5.6958     5.1164 H       
  47 H47           -6.2871    -4.1353     1.3238 H       
  48 H48           -3.7560   -10.1017    -0.2957 H       
  49 H49           -3.8658   -12.0391     1.2159 H       
  50 H50           -4.9523   -11.7978     3.4378 H       
  51 H51           -5.8958    -9.5902     4.0699 H       
@<TRIPOS>BOND
   1    1    2 ar
   2    1   29 1
   3    1    6 ar
   4    2    3 ar
   5    2   33 1
   6    3    4 ar
   7    3   34 1
   8    4    5 ar
   9    4    7 1
  10    5    6 ar
  11    6   35 1
  12    7    8 1
  13    7   12 1
  14    8    9 1
  15    8   36 1
  16    8   37 1
  17    9   10 1
  18    9   38 1
  19    9   39 1
  20   10   11 1
  21   10   13 am
  22   11   12 1
  23   11   40 1
  24   11   41 1
  25   12   42 1
  26   12   43 1
  27   13   14 1
  28   13   21 2
  29   14   15 ar
  30   14   19 ar
  31   15   16 ar
  32   15   44 1
  33   16   17 ar
  34   16   45 1
  35   17   18 ar
  36   17   46 1
  37   18   19 ar
  38   18   20 1
  39   19   47 1
  40   20   22 3
  41   22   23 1
  42   23   24 ar
  43   23   28 ar
  44   24   25 ar
  45   25   26 ar
  46   25   48 1
  47   26   27 ar
  48   26   49 1
  49   27   28 ar
  50   27   50 1
  51   28   51 1
  52   29   30 1
  53   29   31 1
  54   29   32 1

#	End of record

