#	Name: ASD03731249
#	Creating user name:	WinNT
#	Creation time:	15. 06. 2019 20:45

#	Modifying user name:	WinNT
#	Modification time:	15. 06. 2019 20:45

#	Program:	/corina/corina34_cracker 3.40 0067  02.08.2006

@<TRIPOS>MOLECULE
ASD03731249
  58   63    0    0    0
SMALL
NO_CHARGES


@<TRIPOS>ATOM
   1 N1            -0.0162     1.3436     0.0094 N.am    
   2 C2             0.0560     0.0126     0.2091 C.2     
   3 O3             1.1399    -0.5295     0.3072 O.2     
   4 N4            -1.0733    -0.7174     0.3000 N.am    
   5 C5            -0.9948    -2.1641     0.5170 C.3     
   6 C6            -2.4077    -2.7475     0.5816 C.3     
   7 O7             2.5541    -7.0754     3.4697 O.3     
   8 C8             3.0251    -8.3614     3.9139 C.3     
   9 O9             1.8615    -8.9651     4.5094 O.3     
  10 C10            0.7917    -8.3995     3.8767 C.ar    
  11 C11            1.2180    -7.2370     3.2385 C.ar    
  12 C12           -0.5328    -8.7893     3.7916 C.ar    
  13 C13           -1.4476    -8.0262     3.0724 C.ar    
  14 C14           -1.0117    -6.8625     2.4460 C.ar    
  15 C15            0.3096    -6.4744     2.5238 C.ar    
  16 O16           -2.7768    -8.2379     2.8515 O.3     
  17 C17           -2.2189    -6.2534     1.7846 C.3     
  18 C18           -3.3909    -7.0044     2.4310 C.3     
  19 N19           -2.3292    -4.1942     0.7986 N.am    
  20 C20           -2.3070    -4.7724     2.0161 C.2     
  21 C21           -2.1997    -6.4226     0.2943 C.ar    
  22 C22           -2.1320    -7.5174    -0.5381 C.ar    
  23 C23           -2.1342    -7.3453    -1.9109 C.ar    
  24 C24           -2.2038    -6.0714    -2.4448 C.ar    
  25 C25           -2.2708    -4.9715    -1.6151 C.ar    
  26 C26           -2.2695    -5.1353    -0.2321 C.ar    
  27 O27           -2.3501    -4.2072     3.0884 O.2     
  28 C28            1.1525     2.1170     0.0124 C.ar    
  29 C29            2.3307     1.5971    -0.5069 C.ar    
  30 C30            3.4823     2.3604    -0.5041 C.ar    
  31 C31            3.4611     3.6468     0.0179 C.ar    
  32 C32            2.2845     4.1657     0.5364 C.ar    
  33 C33            1.1313     3.4051     0.5291 C.ar    
  34 O34            4.5948     4.3980     0.0211 O.3     
  35 C35            4.5006     5.7125     0.5736 C.3     
  36 Cl36           4.9559     1.7109    -1.1526 Cl      
  37 H37           -0.8767     1.7655    -0.1403 H       
  38 H38           -1.9380    -0.2849     0.2217 H       
  39 H39           -0.4483    -2.6258    -0.3053 H       
  40 H40           -0.4763    -2.3632     1.4549 H       
  41 H41           -2.9542    -2.2859     1.4040 H       
  42 H42           -2.9262    -2.5484    -0.3563 H       
  43 H43            3.3740    -8.9544     3.0685 H       
  44 H44            3.8170    -8.2445     4.6538 H       
  45 H45           -0.8592    -9.6920     4.2867 H       
  46 H46            0.6364    -5.5732     2.0264 H       
  47 H47           -4.1790    -7.1931     1.7020 H       
  48 H48           -3.7785    -6.4532     3.2878 H       
  49 H49           -2.0776    -8.5113    -0.1190 H       
  50 H50           -2.0821    -8.2038    -2.5641 H       
  51 H51           -2.2054    -5.9371    -3.5164 H       
  52 H52           -2.3243    -3.9799    -2.0395 H       
  53 H53            2.3469     0.5963    -0.9126 H       
  54 H54            2.2686     5.1664     0.9423 H       
  55 H55            0.2140     3.8114     0.9291 H       
  56 H56            5.4727     6.2020     0.5143 H       
  57 H57            3.7675     6.2911     0.0116 H       
  58 H58            4.1898     5.6469     1.6162 H       
@<TRIPOS>BOND
   1    1    2 am
   2    1   28 1
   3    1   37 1
   4    2    3 2
   5    2    4 am
   6    4    5 1
   7    4   38 1
   8    5    6 1
   9    5   39 1
  10    5   40 1
  11    6   19 1
  12    6   41 1
  13    6   42 1
  14    7    8 1
  15    7   11 1
  16    8    9 1
  17    8   43 1
  18    8   44 1
  19    9   10 1
  20   10   11 ar
  21   10   12 ar
  22   11   15 ar
  23   12   13 ar
  24   12   45 1
  25   13   14 ar
  26   13   16 1
  27   14   15 ar
  28   14   17 1
  29   15   46 1
  30   16   18 1
  31   17   18 1
  32   17   20 1
  33   17   21 1
  34   18   47 1
  35   18   48 1
  36   19   20 am
  37   19   26 1
  38   20   27 2
  39   21   22 ar
  40   21   26 ar
  41   22   23 ar
  42   22   49 1
  43   23   24 ar
  44   23   50 1
  45   24   25 ar
  46   24   51 1
  47   25   26 ar
  48   25   52 1
  49   28   29 ar
  50   28   33 ar
  51   29   30 ar
  52   29   53 1
  53   30   31 ar
  54   30   36 1
  55   31   32 ar
  56   31   34 1
  57   32   33 ar
  58   32   54 1
  59   33   55 1
  60   34   35 1
  61   35   56 1
  62   35   57 1
  63   35   58 1

#	End of record

