#	Name: ASD01028092
#	Creating user name:	WinNT
#	Creation time:	15. 06. 2019 18:56

#	Modifying user name:	WinNT
#	Modification time:	15. 06. 2019 18:56

#	Program:	/corina/corina34_cracker 3.40 0067  02.08.2006

@<TRIPOS>MOLECULE
ASD01028092
  79   84    0    0    0
SMALL
NO_CHARGES


@<TRIPOS>ATOM
   1 C1             0.3547     1.3020     0.1516 C.3     
   2 C2             0.2576    -0.2207     0.0510 C.3     
   3 C3            -1.1590    -0.6686     0.4152 C.3     
   4 C4             2.5366     1.3359     1.3694 C.3     
   5 C5             1.8145     1.7532     0.0915 C.3     
   6 N6             3.0847     2.5363     2.0548 N.3     
   7 N7             0.8828     1.3015     4.5285 N.pl3   
   8 C8             1.7149     2.2672     5.1281 C.ar    
   9 C9             2.2649     3.2291     4.2783 C.ar    
  10 C10            1.9824     3.1812     2.8036 C.3     
  11 C11            2.0285     2.2739     6.4773 C.ar    
  12 C12            2.8221     3.2926     6.9940 C.ar    
  13 C13            3.3188     4.2794     6.1532 C.ar    
  14 C14            3.0457     4.2414     4.8014 C.ar    
  15 O15           -1.1210    -1.8264     1.2501 O.3     
  16 C16           -1.3141    -1.6409     2.5820 C.ar    
  17 C17           -0.5749    -0.6801     3.2180 C.ar    
  18 C18           -0.7533    -0.4562     4.5858 C.ar    
  19 C19           -0.0130     0.5454     5.2771 C.ar    
  20 N20           -0.2389     0.7012     6.5629 N.ar    
  21 O21            1.7210     1.4128     7.4867 O.3     
  22 C22            2.2032     1.9785     8.7087 C.3     
  23 O23            2.9780     3.1207     8.3353 O.3     
  24 C24           -2.2431    -2.4111     3.2929 C.ar    
  25 C25           -2.4316    -2.2118     4.6452 C.ar    
  26 C26           -1.6900    -1.2287     5.3125 C.ar    
  27 N27           -1.8328    -0.9853     6.6249 N.ar    
  28 C28           -1.1228    -0.0485     7.2084 C.ar    
  29 O29           -2.9662    -3.3613     2.6451 O.3     
  30 C30           -3.8971    -4.1130     3.4264 C.3     
  31 C31            4.1033     2.0446     3.0213 C.3     
  32 C32           -4.6123    -5.1271     2.5314 C.3     
  33 C33           -5.5168    -6.0150     3.3884 C.3     
  34 N34           -6.0792    -7.0879     2.5574 N.3     
  35 C35           -5.0243    -7.9730     2.0583 C.3     
  36 C36           -5.6363    -9.2888     1.5678 C.3     
  37 O37           -5.4034    -4.4341     1.5640 O.3     
  38 S38           -6.7513    -8.9297     0.1773 S.o2    
  39 C39           -7.8041    -7.6361     0.9011 C.3     
  40 C40           -6.9054    -6.5389     1.4798 C.3     
  41 O41           -5.9919    -8.3603    -0.8803 O.2     
  42 O42           -7.5491   -10.0781    -0.0754 O.2     
  43 H43           -0.1936     1.7556    -0.6749 H       
  44 H44           -0.0822     1.6305     1.0949 H       
  45 H45            0.4853    -0.5335    -0.9689 H       
  46 H46            0.9690    -0.6813     0.7359 H       
  47 H47           -1.6734     0.1373     0.9373 H       
  48 H48           -1.7047    -0.9074    -0.4995 H       
  49 H49            1.8526     0.8303     2.0409 H       
  50 H50            3.3691     0.6790     1.1229 H       
  51 H51            2.3005     1.2953    -0.7710 H       
  52 H52            1.8532     2.8384    -0.0107 H       
  53 H53            0.9375     1.1576     3.5656 H       
  54 H54            1.8767     4.2040     2.4277 H       
  55 H55            1.0589     2.6435     2.6096 H       
  56 H56            3.9211     5.0787     6.5596 H       
  57 H57            3.4413     5.0055     4.1478 H       
  58 H58            0.1432    -0.1033     2.6551 H       
  59 H59            1.3675     2.2836     9.3386 H       
  60 H60            2.8263     1.2561     9.2356 H       
  61 H61           -3.1476    -2.8126     5.1867 H       
  62 H62           -1.2667     0.1193     8.2656 H       
  63 H63           -3.3649    -4.6394     4.2187 H       
  64 H64           -4.6300    -3.4375     3.8677 H       
  65 H65            4.8874     1.5120     2.4832 H       
  66 H66            4.5380     2.8909     3.5530 H       
  67 H67            3.6307     1.3705     3.7357 H       
  68 H68           -3.8739    -5.7457     2.0212 H       
  69 H69           -4.9343    -6.4514     4.1998 H       
  70 H70           -6.3264    -5.4152     3.8041 H       
  71 H71           -4.5034    -7.4864     1.2337 H       
  72 H72           -4.3158    -8.1801     2.8604 H       
  73 H73           -4.8437    -9.9600     1.2371 H       
  74 H74           -6.1991    -9.7544     2.3769 H       
  75 H75           -6.0830    -3.8631     1.9478 H       
  76 H76           -8.4468    -7.2131     0.1290 H       
  77 H77           -8.4159    -8.0643     1.6952 H       
  78 H78           -7.5253    -5.7333     1.8734 H       
  79 H79           -6.2607    -6.1467     0.6932 H       
@<TRIPOS>BOND
   1    1    2 1
   2    1    5 1
   3    1   43 1
   4    1   44 1
   5    2    3 1
   6    2   45 1
   7    2   46 1
   8    3   15 1
   9    3   47 1
  10    3   48 1
  11    4    5 1
  12    4    6 1
  13    4   49 1
  14    4   50 1
  15    5   51 1
  16    5   52 1
  17    6   31 1
  18    6   10 1
  19    7    8 1
  20    7   19 1
  21    7   53 1
  22    8    9 ar
  23    8   11 ar
  24    9   10 1
  25    9   14 ar
  26   10   54 1
  27   10   55 1
  28   11   12 ar
  29   11   21 1
  30   12   13 ar
  31   12   23 1
  32   13   14 ar
  33   13   56 1
  34   14   57 1
  35   15   16 1
  36   16   17 ar
  37   16   24 ar
  38   17   18 ar
  39   17   58 1
  40   18   19 ar
  41   18   26 ar
  42   19   20 ar
  43   20   28 ar
  44   21   22 1
  45   22   23 1
  46   22   59 1
  47   22   60 1
  48   24   25 ar
  49   24   29 1
  50   25   26 ar
  51   25   61 1
  52   26   27 ar
  53   27   28 ar
  54   28   62 1
  55   29   30 1
  56   30   32 1
  57   30   63 1
  58   30   64 1
  59   31   65 1
  60   31   66 1
  61   31   67 1
  62   32   33 1
  63   32   37 1
  64   32   68 1
  65   33   34 1
  66   33   69 1
  67   33   70 1
  68   34   35 1
  69   34   40 1
  70   35   36 1
  71   35   71 1
  72   35   72 1
  73   36   38 1
  74   36   73 1
  75   36   74 1
  76   37   75 1
  77   38   39 1
  78   38   41 2
  79   38   42 2
  80   39   40 1
  81   39   76 1
  82   39   77 1
  83   40   78 1
  84   40   79 1

#	End of record

