#	Name: ASD02560371
#	Creating user name:	WinNT
#	Creation time:	15. 06. 2019 20:25

#	Modifying user name:	WinNT
#	Modification time:	15. 06. 2019 20:25

#	Program:	/corina/corina34_cracker 3.40 0067  02.08.2006

@<TRIPOS>MOLECULE
ASD02560371
  51   54    0    0    0
SMALL
NO_CHARGES


@<TRIPOS>ATOM
   1 C1             0.0162     1.4266     0.3041 C.2     
   2 C2             0.0206     0.0261     0.1783 C.2     
   3 C3             1.1860    -0.6471     0.0991 C.2     
   4 N4             2.3805     0.0207     0.1396 N.pl3   
   5 C5             2.4075     1.3911     0.2618 C.2     
   6 C6             1.1937     2.1051     0.3458 C.2     
   7 C7             3.6778    -0.4081     0.0802 C.2     
   8 C8             4.4736     0.7145     0.1677 C.2     
   9 N9             3.6699     1.7877     0.2768 N.2     
  10 C10            5.9554     0.7350     0.1460 C.ar    
  11 N11            4.1130    -1.7295    -0.0444 N.3     
  12 C12            2.9898    -2.6678     0.0817 C.3     
  13 C13            2.3093    -2.8345    -1.2785 C.3     
  14 C14            8.0255     1.9625     0.2284 C.ar    
  15 C15            6.6420     1.9499     0.2494 C.ar    
  16 C16            3.5099    -4.0244     0.5613 C.3     
  17 C17            2.3400    -5.0017     0.6927 C.3     
  18 C18            1.6596    -5.1683    -0.6675 C.3     
  19 C19            1.1395    -3.8117    -1.1472 C.3     
  20 C20            6.6691    -0.4558     0.0284 C.ar    
  21 C21            8.0489    -0.4336     0.0084 C.ar    
  22 C22            8.7288     0.7726     0.1052 C.ar    
  23 O23            5.9519     3.1144     0.3696 O.3     
  24 C24            6.7191     4.3158     0.4699 C.3     
  25 O25           10.0878     0.7879     0.0849 O.3     
  26 C26           10.7490    -0.4730    -0.0381 C.3     
  27 H27           -0.9198     1.9622     0.3631 H       
  28 H28           -0.9145    -0.5132     0.1451 H       
  29 H29            1.1773    -1.7228     0.0034 H       
  30 H30            1.1997     3.1808     0.4423 H       
  31 H31            4.6039    -1.8679    -0.9150 H       
  32 H32            2.2706    -2.2789     0.8025 H       
  33 H33            1.9388    -1.8680    -1.6202 H       
  34 H34            3.0285    -3.2234    -1.9993 H       
  35 H35            8.5581     2.8986     0.3080 H       
  36 H36            4.2291    -4.4133    -0.1595 H       
  37 H37            3.9947    -3.9057     1.5304 H       
  38 H38            2.7106    -5.9681     1.0344 H       
  39 H39            1.6209    -4.6127     1.4135 H       
  40 H40            2.3788    -5.5573    -1.3883 H       
  41 H41            0.8261    -5.8646    -0.5740 H       
  42 H42            0.4203    -3.4228    -0.4264 H       
  43 H43            0.6547    -3.9305    -2.1162 H       
  44 H44            6.1428    -1.3959    -0.0468 H       
  45 H45            8.6011    -1.3573    -0.0825 H       
  46 H46            6.0473     5.1694     0.5606 H       
  47 H47            7.3617     4.2642     1.3488 H       
  48 H48            7.3334     4.4303    -0.4232 H       
  49 H49           11.8280    -0.3186    -0.0415 H       
  50 H50           10.4757    -1.1101     0.8030 H       
  51 H51           10.4475    -0.9519    -0.9697 H       
@<TRIPOS>BOND
   1    1    2 1
   2    1    6 2
   3    1   27 1
   4    2    3 2
   5    2   28 1
   6    3    4 1
   7    3   29 1
   8    4    5 1
   9    4    7 1
  10    5    6 1
  11    5    9 2
  12    6   30 1
  13    7    8 2
  14    7   11 1
  15    8    9 1
  16    8   10 1
  17   10   20 ar
  18   10   15 ar
  19   11   12 1
  20   11   31 1
  21   12   16 1
  22   12   13 1
  23   12   32 1
  24   13   19 1
  25   13   33 1
  26   13   34 1
  27   14   15 ar
  28   14   22 ar
  29   14   35 1
  30   15   23 1
  31   16   17 1
  32   16   36 1
  33   16   37 1
  34   17   18 1
  35   17   38 1
  36   17   39 1
  37   18   19 1
  38   18   40 1
  39   18   41 1
  40   19   42 1
  41   19   43 1
  42   20   21 ar
  43   20   44 1
  44   21   22 ar
  45   21   45 1
  46   22   25 1
  47   23   24 1
  48   24   46 1
  49   24   47 1
  50   24   48 1
  51   25   26 1
  52   26   49 1
  53   26   50 1
  54   26   51 1

#	End of record

