#	Name: ASD01410017
#	Creating user name:	WinNT
#	Creation time:	15. 06. 2019 19:16

#	Modifying user name:	WinNT
#	Modification time:	15. 06. 2019 19:16

#	Program:	/corina/corina34_cracker 3.40 0067  02.08.2006

@<TRIPOS>MOLECULE
ASD01410017
  33   34    0    0    0
SMALL
NO_CHARGES


@<TRIPOS>ATOM
   1 C1            -0.0175     1.3813    -0.0238 C.ar    
   2 C2             0.0016    -0.0022    -0.0275 C.ar    
   3 C3            -1.1844    -0.7104    -0.0129 C.ar    
   4 C4            -2.3951    -0.0335     0.0056 C.ar    
   5 C5            -2.4123     1.3536     0.0094 C.ar    
   6 C6            -1.2240     2.0582    -0.0000 C.ar    
   7 O7            -3.5632    -0.7285     0.0196 O.3     
   8 C8            -4.7716     0.0340     0.0384 C.3     
   9 C9            -5.9545    -0.8996     0.0519 C.2     
  10 N10           -7.2064    -0.4008     0.0705 N.am    
  11 C11           -8.3003    -1.2593    -0.0290 C.ar    
  12 C12           -8.2173    -2.4005    -0.8209 C.ar    
  13 C13           -9.2954    -3.2504    -0.9215 C.ar    
  14 C14          -10.4746    -2.9661    -0.2264 C.ar    
  15 C15          -10.5543    -1.8189     0.5687 C.ar    
  16 C16           -9.4706    -0.9761     0.6684 C.ar    
  17 O17           -5.7799    -2.0997     0.0461 O.2     
  18 Cl18           1.4743     2.2689    -0.0417 Cl      
  19 C19          -11.6319    -3.8740    -0.3320 C.2     
  20 O20          -11.5612    -4.8704    -1.0237 O.2     
  21 O21          -12.7677    -3.5985     0.3387 O.3     
  22 H22            0.9444    -0.5289    -0.0423 H       
  23 H23           -1.1691    -1.7902    -0.0162 H       
  24 H24           -3.3539     1.8824     0.0237 H       
  25 H25           -1.2369     3.1381     0.0032 H       
  26 H26           -4.7925     0.6599     0.9305 H       
  27 H27           -4.8169     0.6650    -0.8493 H       
  28 H28           -7.3464     0.5555     0.1530 H       
  29 H29           -7.3060    -2.6194    -1.3576 H       
  30 H30           -9.2305    -4.1355    -1.5369 H       
  31 H31          -11.4637    -1.5963     1.1071 H       
  32 H32           -9.5314    -0.0897     1.2824 H       
  33 H33          -13.4992    -4.2229     0.2384 H       
@<TRIPOS>BOND
   1    1    2 ar
   2    1   18 1
   3    1    6 ar
   4    2    3 ar
   5    2   22 1
   6    3    4 ar
   7    3   23 1
   8    4    5 ar
   9    4    7 1
  10    5    6 ar
  11    5   24 1
  12    6   25 1
  13    7    8 1
  14    8    9 1
  15    8   26 1
  16    8   27 1
  17    9   10 am
  18    9   17 2
  19   10   11 1
  20   10   28 1
  21   11   12 ar
  22   11   16 ar
  23   12   13 ar
  24   12   29 1
  25   13   14 ar
  26   13   30 1
  27   14   15 ar
  28   14   19 1
  29   15   16 ar
  30   15   31 1
  31   16   32 1
  32   19   20 2
  33   19   21 1
  34   21   33 1

#	End of record

