#	Name: ASD01920071
#	Creating user name:	WinNT
#	Creation time:	15. 06. 2019 20:11

#	Modifying user name:	WinNT
#	Modification time:	15. 06. 2019 20:11

#	Program:	/corina/corina34_cracker 3.40 0067  02.08.2006

@<TRIPOS>MOLECULE
ASD01920071
  36   38    0    0    0
SMALL
NO_CHARGES


@<TRIPOS>ATOM
   1 C1            -0.0965     1.5180    -0.5553 C.ar    
   2 C2            -0.1640     0.2601    -1.1567 C.ar    
   3 C3             1.1692     2.2815    -0.5714 C.2     
   4 O4             2.1542     1.8141    -1.1091 O.2     
   5 N5             1.2311     3.4957     0.0102 N.am    
   6 C6             2.4553     4.1699     0.0945 C.ar    
   7 C7             2.4948     5.5542    -0.0117 C.ar    
   8 C8             3.6297     3.4553     0.2901 C.ar    
   9 C9             4.8375     4.1215     0.3731 C.ar    
  10 C10            4.8763     5.5047     0.2611 C.ar    
  11 C11            3.7022     6.2189     0.0714 C.ar    
  12 O12            6.0648     6.1602     0.3433 O.3     
  13 Cl13           6.3061     3.2288     0.6182 Cl      
  14 C14            6.8506     6.1956    -0.7624 C.ar    
  15 C15            8.1160     6.7633    -0.6887 C.ar    
  16 C16            8.9080     6.7934    -1.8234 C.ar    
  17 C17            8.4029     6.2513    -2.9981 C.ar    
  18 C18            7.1344     5.7025    -2.9982 C.ar    
  19 N19            6.4059     5.6841    -1.8984 N.ar    
  20 Cl20           9.3540     6.2634    -4.4503 Cl      
  21 C21           -1.3485    -0.4469    -1.1385 C.ar    
  22 C22           -2.4680     0.0883    -0.5264 C.ar    
  23 C23           -2.4079     1.3348     0.0711 C.ar    
  24 C24           -1.2309     2.0543     0.0563 C.ar    
  25 H25            0.7089    -0.1585    -1.6354 H       
  26 H26            0.4276     3.9026     0.3703 H       
  27 H27            1.5811     6.1106    -0.1597 H       
  28 H28            3.5991     2.3793     0.3776 H       
  29 H29            3.7331     7.2949    -0.0161 H       
  30 H30            8.4770     7.1762     0.2417 H       
  31 H31            9.8960     7.2288    -1.7961 H       
  32 H32            6.7363     5.2798    -3.9088 H       
  33 H33           -1.4021    -1.4202    -1.6035 H       
  34 H34           -3.3929    -0.4691    -0.5153 H       
  35 H35           -3.2854     1.7471     0.5469 H       
  36 H36           -1.1853     3.0271     0.5230 H       
@<TRIPOS>BOND
   1    1    2 ar
   2    1    3 1
   3    1   24 ar
   4    2   21 ar
   5    2   25 1
   6    3    4 2
   7    3    5 am
   8    5    6 1
   9    5   26 1
  10    6    7 ar
  11    6    8 ar
  12    7   11 ar
  13    7   27 1
  14    8    9 ar
  15    8   28 1
  16    9   10 ar
  17    9   13 1
  18   10   11 ar
  19   10   12 1
  20   11   29 1
  21   12   14 1
  22   14   15 ar
  23   14   19 ar
  24   15   16 ar
  25   15   30 1
  26   16   17 ar
  27   16   31 1
  28   17   18 ar
  29   17   20 1
  30   18   19 ar
  31   18   32 1
  32   21   22 ar
  33   21   33 1
  34   22   23 ar
  35   22   34 1
  36   23   24 ar
  37   23   35 1
  38   24   36 1

#	End of record

