#	Name: ASD01920013
#	Creating user name:	WinNT
#	Creation time:	15. 06. 2019 20:11

#	Modifying user name:	WinNT
#	Modification time:	15. 06. 2019 20:11

#	Program:	/corina/corina34_cracker 3.40 0067  02.08.2006

@<TRIPOS>MOLECULE
ASD01920013
  36   39    0    0    0
SMALL
NO_CHARGES


@<TRIPOS>ATOM
   1 N1            -0.0174     1.3623     0.1049 N.am    
   2 C2             0.0022    -0.0038    -0.0001 C.2     
   3 C3            -1.1513    -0.7274    -0.0875 C.2     
   4 C4            -2.3852    -0.0662    -0.0702 C.2     
   5 C5            -2.3960     1.3362     0.0378 C.2     
   6 C6            -1.1845     2.0416     0.1306 C.2     
   7 O7            -3.6722    -0.4339    -0.1333 O.3     
   8 N8            -4.4364     0.5025    -0.0817 N.2     
   9 C9            -3.8262     1.6590     0.0241 C.2     
  10 C10           -4.4485     3.0026     0.1117 C.ar    
  11 O11           -1.1864     3.2570     0.2248 O.2     
  12 C12            1.2468     2.0969     0.1966 C.3     
  13 C13            1.3008    -0.7087    -0.0195 C.ar    
  14 C14            1.5192    -1.7996     0.8240 C.ar    
  15 C15            2.7338    -2.4531     0.8008 C.ar    
  16 C16            3.7347    -2.0293    -0.0554 C.ar    
  17 C17            3.5251    -0.9486    -0.8936 C.ar    
  18 C18            2.3129    -0.2902    -0.8854 C.ar    
  19 C19           -3.8721     4.0001     0.8952 C.ar    
  20 N20           -4.4239     5.1937     0.9739 N.ar    
  21 C21           -5.5314     5.4929     0.3230 C.ar    
  22 C22           -6.1641     4.5574    -0.4755 C.ar    
  23 C23           -5.6198     3.2904    -0.5952 C.ar    
  24 H24           -1.1126    -1.8036    -0.1699 H       
  25 H25            1.6348     2.2790    -0.8056 H       
  26 H26            1.0781     3.0491     0.6995 H       
  27 H27            1.9682     1.5090     0.7642 H       
  28 H28            0.7390    -2.1309     1.4933 H       
  29 H29            2.9040    -3.2971     1.4527 H       
  30 H30            4.6839    -2.5442    -0.0693 H       
  31 H31            4.3108    -0.6225    -1.5590 H       
  32 H32            2.1505     0.5532    -1.5401 H       
  33 H33           -2.9649     3.7927     1.4434 H       
  34 H34           -5.9511     6.4837     0.4154 H       
  35 H35           -7.0707     4.8140    -1.0033 H       
  36 H36           -6.0928     2.5405    -1.2118 H       
@<TRIPOS>BOND
   1    1    2 1
   2    1   12 1
   3    1    6 am
   4    2    3 2
   5    2   13 1
   6    3    4 1
   7    3   24 1
   8    4    5 2
   9    4    7 1
  10    5    6 1
  11    5    9 1
  12    6   11 2
  13    7    8 1
  14    8    9 2
  15    9   10 1
  16   10   19 ar
  17   10   23 ar
  18   12   25 1
  19   12   26 1
  20   12   27 1
  21   13   14 ar
  22   13   18 ar
  23   14   15 ar
  24   14   28 1
  25   15   16 ar
  26   15   29 1
  27   16   17 ar
  28   16   30 1
  29   17   18 ar
  30   17   31 1
  31   18   32 1
  32   19   20 ar
  33   19   33 1
  34   20   21 ar
  35   21   22 ar
  36   21   34 1
  37   22   23 ar
  38   22   35 1
  39   23   36 1

#	End of record

