#	Name: ASD01913676
#	Creating user name:	WinNT
#	Creation time:	15. 06. 2019 20:02

#	Modifying user name:	WinNT
#	Modification time:	15. 06. 2019 20:02

#	Program:	/corina/corina34_cracker 3.40 0067  02.08.2006

@<TRIPOS>MOLECULE
ASD01913676
  48   50    0    0    0
SMALL
NO_CHARGES


@<TRIPOS>ATOM
   1 C1            -0.0167     1.3779     0.0096 C.ar    
   2 C2             0.0021    -0.0041     0.0020 C.ar    
   3 C3            -1.1857    -0.7116     0.0095 C.ar    
   4 C4            -2.3919    -0.0369     0.0251 C.ar    
   5 C5            -2.4106     1.3455     0.0336 C.ar    
   6 C6            -1.2232     2.0528     0.0305 C.ar    
   7 C7            -3.7258     2.0812     0.0501 C.3     
   8 O8            -4.1291     2.3056     1.4025 O.3     
   9 C9            -5.2998     2.9602     1.5947 C.ar    
  10 N10           -6.0058     3.3561     0.5468 N.ar    
  11 C11           -7.1488     3.9954     0.6817 C.ar    
  12 C12           -7.6588     4.2801     1.9488 C.ar    
  13 C13           -6.9353     3.8743     3.0801 C.ar    
  14 C14           -5.7457     3.2019     2.8907 C.ar    
  15 C15           -8.9402     4.9978     2.0968 C.2     
  16 N16           -9.6268     5.3834     1.0030 N.am    
  17 O17           -9.3762     5.2411     3.2053 O.2     
  18 C18          -10.8985     6.0958     1.1498 C.3     
  19 C19            1.2780     2.1491     0.0014 C.3     
  20 C20          -11.1571     6.9405    -0.0994 C.3     
  21 C21          -12.4852     7.6844     0.0540 C.3     
  22 C22          -13.6193     6.6725     0.2291 C.3     
  23 C23          -13.3608     5.8278     1.4783 C.3     
  24 C24          -12.0326     5.0838     1.3250 C.3     
  25 H25            0.9446    -0.5313    -0.0101 H       
  26 H26           -1.1711    -1.7915     0.0029 H       
  27 H27           -3.3198    -0.5895     0.0302 H       
  28 H28           -1.2378     3.1327     0.0372 H       
  29 H29           -3.6131     3.0384    -0.4590 H       
  30 H30           -4.4820     1.4849    -0.4605 H       
  31 H31           -7.6967     4.3027    -0.1968 H       
  32 H32           -7.3027     4.0793     4.0748 H       
  33 H33           -5.1626     2.8744     3.7387 H       
  34 H34           -9.2789     5.1893     0.1186 H       
  35 H35          -10.8525     6.7449     2.0242 H       
  36 H36            1.5804     2.3405    -1.0282 H       
  37 H37            1.1397     3.0969     0.5217 H       
  38 H38            2.0505     1.5677     0.5048 H       
  39 H39          -10.3491     7.6614    -0.2241 H       
  40 H40          -11.2031     6.2913    -0.9738 H       
  41 H41          -12.4392     8.3335     0.9284 H       
  42 H42          -12.6694     8.2862    -0.8360 H       
  43 H43          -14.5655     7.2025     0.3384 H       
  44 H44          -13.6654     6.0234    -0.6453 H       
  45 H45          -13.3147     6.4769     2.3527 H       
  46 H46          -14.1687     5.1069     1.6031 H       
  47 H47          -12.0786     4.4347     0.4505 H       
  48 H48          -11.8484     4.4820     2.2149 H       
@<TRIPOS>BOND
   1    1    2 ar
   2    1   19 1
   3    1    6 ar
   4    2    3 ar
   5    2   25 1
   6    3    4 ar
   7    3   26 1
   8    4    5 ar
   9    4   27 1
  10    5    6 ar
  11    5    7 1
  12    6   28 1
  13    7    8 1
  14    7   29 1
  15    7   30 1
  16    8    9 1
  17    9   10 ar
  18    9   14 ar
  19   10   11 ar
  20   11   12 ar
  21   11   31 1
  22   12   13 ar
  23   12   15 1
  24   13   14 ar
  25   13   32 1
  26   14   33 1
  27   15   16 am
  28   15   17 2
  29   16   18 1
  30   16   34 1
  31   18   20 1
  32   18   24 1
  33   18   35 1
  34   19   36 1
  35   19   37 1
  36   19   38 1
  37   20   21 1
  38   20   39 1
  39   20   40 1
  40   21   22 1
  41   21   41 1
  42   21   42 1
  43   22   23 1
  44   22   43 1
  45   22   44 1
  46   23   24 1
  47   23   45 1
  48   23   46 1
  49   24   47 1
  50   24   48 1

#	End of record

