#	Name: ASD02039062
#	Creating user name:	WinNT
#	Creation time:	15. 06. 2019 20:17

#	Modifying user name:	WinNT
#	Modification time:	15. 06. 2019 20:17

#	Program:	/corina/corina34_cracker 3.40 0067  02.08.2006

@<TRIPOS>MOLECULE
ASD02039062
  47   50    0    0    0
SMALL
NO_CHARGES


@<TRIPOS>ATOM
   1 N1             0.0235     1.2846    -0.3608 N.2     
   2 N2             0.0399    -0.0019    -0.3621 N.2     
   3 C3             1.2243     1.7332    -0.0876 C.2     
   4 O4             2.0203     0.6621     0.0883 O.3     
   5 C5             1.2410    -0.4221    -0.0921 C.2     
   6 N6             1.6034     3.0607     0.0028 N.pl3   
   7 C7             0.6404     4.0705    -0.0881 C.ar    
   8 C8             1.6808    -1.8603     0.0026 C.3     
   9 O9             2.1176    -2.3104    -1.2814 O.3     
  10 C10            2.5504    -3.5963    -1.3705 C.ar    
  11 C11            2.9885    -4.0981    -2.5875 C.ar    
  12 C12            2.5592    -4.4048    -0.2435 C.ar    
  13 C13            3.0054    -5.7086    -0.3326 C.ar    
  14 C14            3.4457    -6.2113    -1.5492 C.ar    
  15 C15            3.4279    -5.4040    -2.6789 C.ar    
  16 C16           -0.6617     3.8292     0.3296 C.ar    
  17 C17            0.9863     5.3185    -0.5911 C.ar    
  18 C18            0.0341     6.3148    -0.6803 C.ar    
  19 C19           -1.2645     6.0719    -0.2693 C.ar    
  20 C20           -1.6121     4.8301     0.2383 C.ar    
  21 Cl21          -2.4586     7.3269    -0.3830 Cl      
  22 N22            3.9005    -7.5320    -1.6383 N.am    
  23 C23            4.5784    -7.9541    -2.7194 C.2     
  24 C24            4.9736    -6.9858    -3.8030 C.3     
  25 C25            3.8631    -5.9588    -4.0108 C.3     
  26 C26            6.2593    -6.2633    -3.3956 C.3     
  27 C27            5.2124    -7.7506    -5.1064 C.3     
  28 O28            4.8750    -9.1256    -2.8230 O.2     
  29 F29           -2.8808     4.5953     0.6391 F       
  30 H30            2.5371     3.2910     0.1292 H       
  31 H31            2.5015    -1.9432     0.7151 H       
  32 H32            0.8451    -2.4745     0.3379 H       
  33 H33            2.9856    -3.4671    -3.4640 H       
  34 H34            2.2175    -4.0145     0.7038 H       
  35 H35            3.0121    -6.3377     0.5453 H       
  36 H36           -0.9321     2.8611     0.7248 H       
  37 H37            1.9997     5.5095    -0.9120 H       
  38 H38            0.3036     7.2849    -1.0711 H       
  39 H39            3.7246    -8.1497    -0.9114 H       
  40 H40            3.0134    -6.4371    -4.4980 H       
  41 H41            4.2317    -5.1483    -4.6395 H       
  42 H42            7.0560    -6.9931    -3.2516 H       
  43 H43            6.5460    -5.5622    -4.1794 H       
  44 H44            6.0917    -5.7200    -2.4656 H       
  45 H45            4.2981    -8.2681    -5.3967 H       
  46 H46            5.4985    -7.0504    -5.8913 H       
  47 H47            6.0108    -8.4780    -4.9598 H       
@<TRIPOS>BOND
   1    1    2 1
   2    1    3 2
   3    2    5 2
   4    3    4 1
   5    3    6 1
   6    4    5 1
   7    5    8 1
   8    6    7 1
   9    6   30 1
  10    7   16 ar
  11    7   17 ar
  12    8    9 1
  13    8   31 1
  14    8   32 1
  15    9   10 1
  16   10   11 ar
  17   10   12 ar
  18   11   15 ar
  19   11   33 1
  20   12   13 ar
  21   12   34 1
  22   13   14 ar
  23   13   35 1
  24   14   15 ar
  25   14   22 1
  26   15   25 1
  27   16   20 ar
  28   16   36 1
  29   17   18 ar
  30   17   37 1
  31   18   19 ar
  32   18   38 1
  33   19   20 ar
  34   19   21 1
  35   20   29 1
  36   22   23 am
  37   22   39 1
  38   23   24 1
  39   23   28 2
  40   24   25 1
  41   24   26 1
  42   24   27 1
  43   25   40 1
  44   25   41 1
  45   26   42 1
  46   26   43 1
  47   26   44 1
  48   27   45 1
  49   27   46 1
  50   27   47 1

#	End of record

