#	Name: ASD04882553
#	Creating user name:	WinNT
#	Creation time:	15. 06. 2019 20:55

#	Modifying user name:	WinNT
#	Modification time:	15. 06. 2019 20:55

#	Program:	/corina/corina34_cracker 3.40 0067  02.08.2006

@<TRIPOS>MOLECULE
ASD04882553
  71   74    0    0    0
SMALL
NO_CHARGES


@<TRIPOS>ATOM
   1 C1            -0.1115     1.2763     0.0114 C.ar    
   2 C2             0.0163    -0.1122     0.0983 C.ar    
   3 C3            -1.1164    -0.9189     0.0849 C.ar    
   4 C4            -2.3674    -0.3524    -0.0144 C.ar    
   5 C5            -2.5020     1.0362    -0.1021 C.ar    
   6 C6            -1.3654     1.8492    -0.0821 C.ar    
   7 N7             1.2791    -0.6890     0.1978 N.3     
   8 C8             1.4597    -1.3390     1.5034 C.3     
   9 C9             1.5113    -1.6407    -0.8977 C.3     
  10 C10            2.9356    -2.1917    -0.7979 C.3     
  11 N11            3.1163    -2.8417     0.5077 N.3     
  12 C12            2.8841    -1.8901     1.6032 C.3     
  13 C13           -3.8424     1.6431    -0.2090 C.2     
  14 O14           -3.9586     2.8511    -0.2852 O.2     
  15 N15           -4.9383     0.8586    -0.2221 N.am    
  16 N16            1.0329     2.0893     0.0249 N.am    
  17 C17            4.3835    -3.4205     0.6076 C.ar    
  18 C18            1.4923     2.5869     1.1902 C.2     
  19 C19            5.5203    -2.6310     0.4927 C.ar    
  20 C20            6.7720    -3.2065     0.5925 C.ar    
  21 C21            6.8939    -4.5671     0.8061 C.ar    
  22 C22            5.7639    -5.3563     0.9210 C.ar    
  23 C23            4.5096    -4.7865     0.8279 C.ar    
  24 C24           -6.2694     1.4612    -0.3283 C.3     
  25 C25           -7.3303     0.3589    -0.3212 C.3     
  26 C26           -8.6996     0.9788    -0.4304 C.2     
  27 C27            3.2789    -5.6470     0.9538 C.3     
  28 C28            1.6723     2.3722    -1.1273 C.2     
  29 C29            1.0833     1.9334    -2.4432 C.3     
  30 O30            2.7212     2.9797    -1.1052 O.2     
  31 F31            1.8606     2.4353    -3.4925 F       
  32 F32            1.0655     0.5358    -2.5032 F       
  33 F33           -0.2229     2.4217    -2.5555 F       
  34 O34            2.5429     3.1911     1.2191 O.2     
  35 F35            1.3192     3.0819     3.5051 F       
  36 F36           -0.5969     2.8852     2.2766 F       
  37 C37            0.6999     2.3923     2.4572 C.3     
  38 F38            0.6418     1.0291     2.7661 F       
  39 N39           -9.2051     1.9210     0.3794 N.2     
  40 C40          -10.4135     2.2212    -0.0113 C.2     
  41 N41          -10.7175     1.4717    -1.0928 N.pl3   
  42 C42           -9.6279     0.6881    -1.3617 C.2     
  43 C43          -11.9765     1.4966    -1.8416 C.3     
  44 H44           -1.0146    -1.9920     0.1522 H       
  45 H45           -3.2453    -0.9813    -0.0249 H       
  46 H46           -1.4664     2.9223    -0.1494 H       
  47 H47            1.2948    -0.6112     2.2979 H       
  48 H48            0.7457    -2.1564     1.6046 H       
  49 H49            0.7978    -2.4614    -0.8238 H       
  50 H50            1.3840    -1.1328    -1.8537 H       
  51 H51            3.1005    -2.9195    -1.5924 H       
  52 H52            3.6497    -1.3744    -0.8991 H       
  53 H53            3.5975    -1.0694     1.5293 H       
  54 H54            3.0113    -2.3980     2.5592 H       
  55 H55           -4.8456    -0.1051    -0.1613 H       
  56 H56            5.4258    -1.5683     0.3251 H       
  57 H57            7.6564    -2.5932     0.5032 H       
  58 H58            7.8738    -5.0147     0.8830 H       
  59 H59            5.8627    -6.4188     1.0875 H       
  60 H60           -6.4341     2.1295     0.5169 H       
  61 H61           -6.3391     2.0267    -1.2576 H       
  62 H62           -7.1656    -0.3094    -1.1664 H       
  63 H63           -7.2606    -0.2065     0.6081 H       
  64 H64            2.9774    -5.6992     2.0000 H       
  65 H65            2.4709    -5.2141     0.3640 H       
  66 H66            3.4982    -6.6503     0.5885 H       
  67 H67          -11.0629     2.9482     0.4535 H       
  68 H68           -9.5333    -0.0301    -2.1627 H       
  69 H69          -11.9090     2.2342    -2.6413 H       
  70 H70          -12.1638     0.5121    -2.2702 H       
  71 H71          -12.7932     1.7621    -1.1704 H       
@<TRIPOS>BOND
   1    1    2 ar
   2    1   16 1
   3    1    6 ar
   4    2    3 ar
   5    2    7 1
   6    3    4 ar
   7    3   44 1
   8    4    5 ar
   9    4   45 1
  10    5    6 ar
  11    5   13 1
  12    6   46 1
  13    7    8 1
  14    7    9 1
  15    8   12 1
  16    8   47 1
  17    8   48 1
  18    9   10 1
  19    9   49 1
  20    9   50 1
  21   10   11 1
  22   10   51 1
  23   10   52 1
  24   11   12 1
  25   11   17 1
  26   12   53 1
  27   12   54 1
  28   13   14 2
  29   13   15 am
  30   15   24 1
  31   15   55 1
  32   16   18 am
  33   16   28 am
  34   17   19 ar
  35   17   23 ar
  36   18   37 1
  37   18   34 2
  38   19   20 ar
  39   19   56 1
  40   20   21 ar
  41   20   57 1
  42   21   22 ar
  43   21   58 1
  44   22   23 ar
  45   22   59 1
  46   23   27 1
  47   24   25 1
  48   24   60 1
  49   24   61 1
  50   25   26 1
  51   25   62 1
  52   25   63 1
  53   26   39 1
  54   26   42 2
  55   27   64 1
  56   27   65 1
  57   27   66 1
  58   28   29 1
  59   28   30 2
  60   29   31 1
  61   29   32 1
  62   29   33 1
  63   35   37 1
  64   36   37 1
  65   37   38 1
  66   39   40 2
  67   40   41 1
  68   40   67 1
  69   41   42 1
  70   41   43 1
  71   42   68 1
  72   43   69 1
  73   43   70 1
  74   43   71 1

#	End of record

