#	Name: ASD07931903
#	Creating user name:	WinNT
#	Creation time:	15. 06. 2019 21:13

#	Modifying user name:	WinNT
#	Modification time:	15. 06. 2019 21:13

#	Program:	/corina/corina34_cracker 3.40 0067  02.08.2006

@<TRIPOS>MOLECULE
ASD07931903
  32   33    0    0    0
SMALL
NO_CHARGES


@<TRIPOS>ATOM
   1 C1            -0.0187     1.5267     0.0104 C.3     
   2 C2             0.0021    -0.0041     0.0020 C.3     
   3 C3             0.7722    -0.4897    -1.2298 C.3     
   4 C4             2.1813     0.1106    -1.2068 C.3     
   5 C5             2.0763     1.6370    -1.1517 C.3     
   6 O6             1.3225     2.0200     0.0003 O.3     
   7 C7             3.4580     2.2331    -1.0692 C.ar    
   8 C8             4.0596     2.7432    -2.2044 C.ar    
   9 C9             5.3269     3.2899    -2.1287 C.ar    
  10 C10            5.9925     3.3269    -0.9177 C.ar    
  11 C11            5.3905     2.8176     0.2177 C.ar    
  12 C12            4.1214     2.2748     0.1428 C.ar    
  13 C13            7.3746     3.9221    -0.8354 C.3     
  14 F14            7.2776     5.2898    -0.5577 F       
  15 F15            8.0948     3.2893     0.1835 F       
  16 F16            8.0343     3.7396    -2.0555 F       
  17 C17           -0.7583     2.0338    -1.2292 C.3     
  18 I18           -0.9416     4.1856    -1.1291 I       
  19 H19           -0.5286     1.8784     0.9073 H       
  20 H20            0.4932    -0.3667     0.9050 H       
  21 H21           -1.0196    -0.3820    -0.0348 H       
  22 H22            0.8391    -1.5775    -1.2125 H       
  23 H23            0.2540    -0.1692    -2.1336 H       
  24 H24            2.7164    -0.2496    -0.3283 H       
  25 H25            2.7180    -0.1853    -2.1082 H       
  26 H26            1.5768     1.9997    -2.0501 H       
  27 H27            3.5396     2.7142    -3.1505 H       
  28 H28            5.7973     3.6878    -3.0158 H       
  29 H29            5.9107     2.8463     1.1637 H       
  30 H30            3.6496     1.8803     1.0306 H       
  31 H31           -0.1997     1.7580    -2.1237 H       
  32 H32           -1.7512     1.5859    -1.2684 H       
@<TRIPOS>BOND
   1    1    2 1
   2    1    6 1
   3    1   17 1
   4    1   19 1
   5    2    3 1
   6    2   20 1
   7    2   21 1
   8    3    4 1
   9    3   22 1
  10    3   23 1
  11    4    5 1
  12    4   24 1
  13    4   25 1
  14    5    6 1
  15    5    7 1
  16    5   26 1
  17    7    8 ar
  18    7   12 ar
  19    8    9 ar
  20    8   27 1
  21    9   10 ar
  22    9   28 1
  23   10   11 ar
  24   10   13 1
  25   11   12 ar
  26   11   29 1
  27   12   30 1
  28   13   14 1
  29   13   15 1
  30   13   16 1
  31   17   18 1
  32   17   31 1
  33   17   32 1

#	End of record

