#	Name: ASD01040050
#	Creating user name:	WinNT
#	Creation time:	15. 06. 2019 18:58

#	Modifying user name:	WinNT
#	Modification time:	15. 06. 2019 18:58

#	Program:	/corina/corina34_cracker 3.40 0067  02.08.2006

@<TRIPOS>MOLECULE
ASD01040050
  52   55    0    0    0
SMALL
NO_CHARGES


@<TRIPOS>ATOM
   1 O1            -0.0110     0.9628     0.0073 O.3     
   2 C2             1.2225     1.5323    -0.0014 C.ar    
   3 C3             1.8654     1.8109     1.1973 C.ar    
   4 C4             3.1195     2.3840     1.1918 C.ar    
   5 C5             3.7423     2.6833    -0.0193 C.ar    
   6 C6             5.0909     3.2991    -0.0289 C.2     
   7 C7             5.2878     4.6614     0.5220 C.ar    
   8 C8             4.6816     5.7573    -0.0910 C.ar    
   9 C9             4.8666     7.0230     0.4238 C.ar    
  10 C10            5.6560     7.2070     1.5511 C.ar    
  11 O11            5.8364     8.4554     2.0559 O.3     
  12 C12            6.2610     6.1178     2.1639 C.ar    
  13 C13            6.0748     4.8488     1.6576 C.ar    
  14 C14            6.1310     2.6250    -0.5350 C.2     
  15 C15            7.5152     3.2348    -0.5545 C.3     
  16 C16            8.4960     2.2368     0.0700 C.3     
  17 C17            8.3879     0.8954    -0.6571 C.3     
  18 C18            6.9896     0.3084    -0.4572 C.3     
  19 C19            6.9188    -1.0521    -1.1015 C.ar    
  20 C20            7.1526    -1.1865    -2.4576 C.ar    
  21 C21            7.0883    -2.4326    -3.0506 C.ar    
  22 C22            6.7894    -3.5496    -2.2841 C.ar    
  23 O23            6.7260    -4.7766    -2.8650 O.3     
  24 C24            6.5557    -3.4121    -0.9235 C.ar    
  25 C25            6.6259    -2.1645    -0.3344 C.ar    
  26 C26            5.9532     1.2316    -1.0962 C.3     
  27 C27            3.0942     2.4018    -1.2214 C.ar    
  28 C28            1.8400     1.8291    -1.2090 C.ar    
  29 H29            0.0021    -0.0041     0.0020 H       
  30 H30            1.3825     1.5788     2.1351 H       
  31 H31            3.6187     2.6012     2.1245 H       
  32 H32            4.0680     5.6149    -0.9683 H       
  33 H33            4.3973     7.8722    -0.0506 H       
  34 H34            5.1783     8.7114     2.7166 H       
  35 H35            6.8744     6.2642     3.0406 H       
  36 H36            6.5457     4.0020     2.1347 H       
  37 H37            7.8094     3.4423    -1.5833 H       
  38 H38            7.5162     4.1592     0.0231 H       
  39 H39            9.5124     2.6196    -0.0226 H       
  40 H40            8.2537     2.0999     1.1238 H       
  41 H41            8.5685     1.0468    -1.7213 H       
  42 H42            9.1311     0.2045    -0.2592 H       
  43 H43            6.7828     0.2169     0.6090 H       
  44 H44            7.3852    -0.3166    -3.0539 H       
  45 H45            7.2702    -2.5370    -4.1100 H       
  46 H46            7.5680    -5.2520    -2.8729 H       
  47 H47            6.3225    -4.2802    -0.3248 H       
  48 H48            6.4481    -2.0575     0.7254 H       
  49 H49            4.9506     0.8691    -0.8693 H       
  50 H50            6.1010     1.2562    -2.1759 H       
  51 H51            3.5740     2.6325    -2.1610 H       
  52 H52            1.3391     1.6074    -2.1398 H       
@<TRIPOS>BOND
   1    1   29 1
   2    1    2 1
   3    2   28 ar
   4    2    3 ar
   5    3   30 1
   6    3    4 ar
   7    4    5 ar
   8    4   31 1
   9    5   27 ar
  10    5    6 1
  11    6    7 1
  12    6   14 2
  13    7    8 ar
  14    7   13 ar
  15    8    9 ar
  16    8   32 1
  17    9   33 1
  18    9   10 ar
  19   10   11 1
  20   10   12 ar
  21   11   34 1
  22   12   35 1
  23   12   13 ar
  24   13   36 1
  25   14   15 1
  26   14   26 1
  27   15   16 1
  28   15   37 1
  29   15   38 1
  30   16   39 1
  31   16   40 1
  32   16   17 1
  33   17   18 1
  34   17   41 1
  35   17   42 1
  36   18   43 1
  37   18   19 1
  38   18   26 1
  39   19   25 ar
  40   19   20 ar
  41   20   44 1
  42   20   21 ar
  43   21   22 ar
  44   21   45 1
  45   22   24 ar
  46   22   23 1
  47   23   46 1
  48   24   25 ar
  49   24   47 1
  50   25   48 1
  51   26   49 1
  52   26   50 1
  53   27   28 ar
  54   27   51 1
  55   28   52 1

#	End of record

