#	Name: ASD00844585
#	Creating user name:	WinNT
#	Creation time:	15. 06. 2019 18:50

#	Modifying user name:	WinNT
#	Modification time:	15. 06. 2019 18:50

#	Program:	/corina/corina34_cracker 3.40 0067  02.08.2006

@<TRIPOS>MOLECULE
ASD00844585
  97  102    0    0    0
SMALL
NO_CHARGES


@<TRIPOS>ATOM
   1 C1             0.7002     1.0910    -0.2323 C.ar    
   2 C2             0.9171    -0.2445    -0.5377 C.ar    
   3 C3             0.7864    -1.2098     0.4504 C.ar    
   4 C4             0.4407    -0.8389     1.7352 C.ar    
   5 C5             0.2245     0.4932     2.0370 C.ar    
   6 C6             0.3546     1.4569     1.0545 C.ar    
   7 C7             1.0209    -2.6618     0.1219 C.3     
   8 C8             0.6890    -3.5353     1.3130 C.2     
   9 C9             0.1903    -3.0757    -1.0945 C.3     
  10 C10           -1.2599    -2.7485    -0.8474 C.2     
  11 N11           -2.1975    -3.1277    -1.7382 N.am    
  12 O12           -1.5832    -2.1439     0.1530 O.2     
  13 C13           -3.6018    -2.7224    -1.5747 C.3     
  14 C14           -4.0858    -2.1024    -2.8899 C.3     
  15 N15           -3.8344    -3.0410    -3.9917 N.3     
  16 C16           -2.3967    -3.2892    -4.1626 C.3     
  17 C17           -1.8424    -3.9527    -2.9029 C.3     
  18 C18           -4.4377    -2.5594    -5.2415 C.3     
  19 C19           -4.0514    -3.4953    -6.3901 C.3     
  20 C20           -4.7319    -3.0234    -7.6770 C.3     
  21 N21           -6.1884    -3.0237    -7.4905 N.3     
  22 C22           -6.5874    -2.0963    -6.4241 C.3     
  23 C23           -5.9622    -2.5405    -5.0997 C.3     
  24 C24           -6.8802    -2.7092    -8.7477 C.3     
  25 O25           -0.3930    -3.6387     1.8512 O.2     
  26 N26            1.8182    -4.1743     1.6621 N.am    
  27 C27            2.4900    -2.9185    -0.1242 C.ar    
  28 C28            2.8934    -3.8348     0.8392 C.ar    
  29 C29            3.3813    -2.4338    -1.0548 C.ar    
  30 C30            4.6987    -2.8600    -1.0372 C.ar    
  31 C31            5.1139    -3.7737    -0.0815 C.ar    
  32 C32            4.2196    -4.2605     0.8527 C.ar    
  33 Cl33           5.8264    -2.2522    -2.2089 Cl      
  34 F34            6.3988    -4.1905    -0.0631 F       
  35 C35            1.5611    -6.8431     2.2832 C.ar    
  36 C36            0.2972    -7.1223     1.7847 C.ar    
  37 C37            2.5382    -7.8199     2.2718 C.ar    
  38 C38            2.2572    -9.0745     1.7637 C.ar    
  39 C39            0.9979    -9.3554     1.2662 C.ar    
  40 C40            0.0175    -8.3825     1.2757 C.ar    
  41 H41            0.7808   -10.3363     0.8698 H       
  42 O42           -0.6658    -6.1634     1.7952 O.3     
  43 C43           -1.9439    -6.5216     1.2659 C.3     
  44 C44           -2.8898    -5.3229     1.3618 C.3     
  45 C45           -8.3802    -2.9609    -8.5812 C.3     
  46 C46           -9.1007    -2.6334    -9.8905 C.3     
  47 S47            1.9225    -5.2419     2.9237 S.o2    
  48 O48            3.2876    -5.2659     3.3173 O.2     
  49 O49            0.8628    -4.9170     3.8129 O.2     
  50 O50            1.2567    -0.6070    -1.8027 O.3     
  51 C51            1.3066     0.4309    -2.7836 C.3     
  52 C52            1.7873    -0.1488    -4.1155 C.3     
  53 F53            3.0232    -0.7780    -3.9313 F       
  54 F54            0.8544    -1.0810    -4.5821 F       
  55 H55            0.8056     1.8447    -0.9986 H       
  56 H56            0.3389    -1.5899     2.5046 H       
  57 H57           -0.0464     0.7811     3.0421 H       
  58 H58            0.1852     2.4966     1.2927 H       
  59 H59            0.5400    -2.5353    -1.9741 H       
  60 H60            0.2978    -4.1477    -1.2601 H       
  61 H61           -4.2094    -3.5953    -1.3360 H       
  62 H62           -3.6800    -1.9879    -0.7731 H       
  63 H63           -5.1543    -1.8970    -2.8237 H       
  64 H64           -3.5471    -1.1729    -3.0738 H       
  65 H65           -2.2401    -3.9446    -5.0194 H       
  66 H66           -1.8815    -2.3432    -4.3288 H       
  67 H67           -0.7581    -4.0344    -2.9789 H       
  68 H68           -2.2800    -4.9445    -2.7886 H       
  69 H69           -4.0784    -1.5527    -5.4552 H       
  70 H70           -2.9697    -3.4801    -6.5237 H       
  71 H71           -4.3757    -4.5096    -6.1578 H       
  72 H72           -4.3965    -2.0142    -7.9162 H       
  73 H73           -4.4702    -3.6960    -8.4939 H       
  74 H74           -6.2433    -1.0915    -6.6691 H       
  75 H75           -7.6734    -2.0956    -6.3309 H       
  76 H76           -6.3166    -3.5398    -4.8471 H       
  77 H77           -6.2458    -1.8431    -4.3115 H       
  78 H78           -6.7135    -1.6626    -9.0022 H       
  79 H79           -6.4917    -3.3433    -9.5446 H       
  80 H80            3.0532    -1.7221    -1.7979 H       
  81 H81            4.5497    -4.9721     1.5950 H       
  82 H82            3.5225    -7.6030     2.6598 H       
  83 H83            3.0225    -9.8365     1.7550 H       
  84 H84           -0.9661    -8.6025     0.8877 H       
  85 H85           -1.8353    -6.8162     0.2221 H       
  86 H86           -2.3535    -7.3543     1.8376 H       
  87 H87           -2.4801    -4.4902     0.7900 H       
  88 H88           -3.8647    -5.5961     0.9580 H       
  89 H89           -2.9984    -5.0283     2.4056 H       
  90 H90           -8.5469    -4.0075    -8.3267 H       
  91 H91           -8.7687    -2.3268    -7.7842 H       
  92 H92          -10.1693    -2.8126    -9.7719 H       
  93 H93           -8.9340    -1.5867   -10.1451 H       
  94 H94           -8.7122    -3.2674   -10.6875 H       
  95 H95            0.3121     0.8583    -2.9113 H       
  96 H96            1.9968     1.2081    -2.4555 H       
  97 H97            1.8937     0.6548    -4.8442 H       
@<TRIPOS>BOND
   1    1    2 ar
   2    1    6 ar
   3    1   55 1
   4    2    3 ar
   5    2   50 1
   6    3    4 ar
   7    3    7 1
   8    4    5 ar
   9    4   56 1
  10    5    6 ar
  11    5   57 1
  12    6   58 1
  13    7    8 1
  14    7    9 1
  15    7   27 1
  16    8   25 2
  17    8   26 am
  18    9   10 1
  19    9   59 1
  20    9   60 1
  21   10   11 am
  22   10   12 2
  23   11   13 1
  24   11   17 1
  25   13   14 1
  26   13   61 1
  27   13   62 1
  28   14   15 1
  29   14   63 1
  30   14   64 1
  31   15   16 1
  32   15   18 1
  33   16   17 1
  34   16   65 1
  35   16   66 1
  36   17   67 1
  37   17   68 1
  38   18   19 1
  39   18   23 1
  40   18   69 1
  41   19   20 1
  42   19   70 1
  43   19   71 1
  44   20   21 1
  45   20   72 1
  46   20   73 1
  47   21   22 1
  48   21   24 1
  49   22   23 1
  50   22   74 1
  51   22   75 1
  52   23   76 1
  53   23   77 1
  54   24   45 1
  55   24   78 1
  56   24   79 1
  57   26   47 am
  58   26   28 1
  59   27   28 ar
  60   27   29 ar
  61   28   32 ar
  62   29   30 ar
  63   29   80 1
  64   30   31 ar
  65   30   33 1
  66   31   32 ar
  67   31   34 1
  68   32   81 1
  69   35   36 ar
  70   35   37 ar
  71   35   47 1
  72   36   42 1
  73   36   40 ar
  74   37   38 ar
  75   37   82 1
  76   38   39 ar
  77   38   83 1
  78   39   40 ar
  79   39   41 1
  80   40   84 1
  81   42   43 1
  82   43   44 1
  83   43   85 1
  84   43   86 1
  85   44   87 1
  86   44   88 1
  87   44   89 1
  88   45   46 1
  89   45   90 1
  90   45   91 1
  91   46   92 1
  92   46   93 1
  93   46   94 1
  94   47   48 2
  95   47   49 2
  96   50   51 1
  97   51   52 1
  98   51   95 1
  99   51   96 1
 100   52   53 1
 101   52   54 1
 102   52   97 1

#	End of record

