#	Name: ASD03331074
#	Creating user name:	WinNT
#	Creation time:	15. 06. 2019 20:38

#	Modifying user name:	WinNT
#	Modification time:	15. 06. 2019 20:38

#	Program:	/corina/corina34_cracker 3.40 0067  02.08.2006

@<TRIPOS>MOLECULE
ASD03331074
  64   67    0    0    0
SMALL
NO_CHARGES


@<TRIPOS>ATOM
   1 N1            -0.8280     1.7375    -0.4385 N.pl3   
   2 C2            -0.6547     0.4164    -0.1662 C.2     
   3 C3             0.6559    -0.2457     0.1706 C.3     
   4 N4             1.3534     0.5556     1.1884 N.3     
   5 C5             2.1979     1.5795     0.5701 C.3     
   6 C6             1.5703     2.0985    -0.7203 C.3     
   7 C7             0.2233     2.7584    -0.4129 C.3     
   8 C8            -2.1491     1.9261    -0.7233 C.2     
   9 N9            -2.7697     0.7746    -0.6139 N.2     
  10 C10           -1.8754    -0.1777    -0.2683 C.2     
  11 C11           -2.1689    -1.6040    -0.0429 C.2     
  12 O12           -1.2739    -2.3676     0.2656 O.2     
  13 N13           -3.4290    -2.0623    -0.1785 N.am    
  14 C14            2.1380    -0.3018     2.0868 C.3     
  15 C15           -2.7769     3.2129    -1.0928 C.ar    
  16 C16           -3.6451     3.2814    -2.1860 C.ar    
  17 C17           -4.2290     4.4866    -2.5260 C.ar    
  18 C18           -3.9546     5.6248    -1.7858 C.ar    
  19 C19           -3.0934     5.5617    -0.7005 C.ar    
  20 C20           -2.5093     4.3619    -0.3480 C.ar    
  21 F21           -4.5278     6.8009    -2.1226 F       
  22 F22           -3.9125     2.1718    -2.9088 F       
  23 Cl23          -2.7545     6.9936     0.2206 Cl      
  24 C24           -4.9594    -3.8658    -0.7214 C.2     
  25 C25           -3.7208    -3.4804     0.0456 C.3     
  26 C26           -3.9491    -3.7243     1.5387 C.3     
  27 C27           -4.3612    -5.1810     1.7604 C.3     
  28 O28           -5.8289    -3.0443    -0.9215 O.2     
  29 C29           -2.6567    -3.4376     2.3058 C.3     
  30 C30           -5.0576    -2.7982     2.0431 C.3     
  31 N31           -5.1009    -5.1233    -1.1851 N.am    
  32 C32           -6.1541    -5.8867    -1.8712 C.3     
  33 C33           -5.5656    -7.1582    -1.2443 C.3     
  34 C34           -4.2676    -6.3341    -1.2334 C.3     
  35 H35            0.4690    -1.2465     0.5600 H       
  36 H36            1.2718    -0.3117    -0.7262 H       
  37 H37            2.3230     2.4088     1.2663 H       
  38 H38            3.1746     1.1506     0.3461 H       
  39 H39            2.2360     2.8301    -1.1784 H       
  40 H40            1.4179     1.2675    -1.4090 H       
  41 H41            0.0105     3.5195    -1.1636 H       
  42 H42            0.2600     3.2190     0.5744 H       
  43 H43           -4.1428    -1.4533    -0.4245 H       
  44 H44            2.8311    -0.9047     1.5002 H       
  45 H45            2.6984     0.3200     2.7850 H       
  46 H46            1.4666    -0.9569     2.6420 H       
  47 H47           -4.9002     4.5413    -3.3704 H       
  48 H48           -1.8427     4.3135     0.5004 H       
  49 H49           -2.8794    -4.0830    -0.2965 H       
  50 H50           -3.5640    -5.8404     1.4174 H       
  51 H51           -4.5412    -5.3501     2.8220 H       
  52 H52           -5.2722    -5.3901     1.1996 H       
  53 H53           -2.3630    -2.3998     2.1479 H       
  54 H54           -2.8193    -3.6114     3.3695 H       
  55 H55           -1.8669    -4.0974     1.9464 H       
  56 H56           -5.9784    -3.0025     1.4967 H       
  57 H57           -5.2203    -2.9720     3.1068 H       
  58 H58           -4.7640    -1.7605     1.8852 H       
  59 H59           -7.1588    -5.6538    -1.5185 H       
  60 H60           -6.0716    -5.8603    -2.9578 H       
  61 H61           -5.9588    -7.3919    -0.2549 H       
  62 H62           -5.5416    -8.0172    -1.9148 H       
  63 H63           -3.6877    -6.4256    -2.1518 H       
  64 H64           -3.6650    -6.4824    -0.3373 H       
@<TRIPOS>BOND
   1    1    2 1
   2    1    7 1
   3    1    8 1
   4    2    3 1
   5    2   10 2
   6    3    4 1
   7    3   35 1
   8    3   36 1
   9    4    5 1
  10    4   14 1
  11    5    6 1
  12    5   37 1
  13    5   38 1
  14    6    7 1
  15    6   39 1
  16    6   40 1
  17    7   41 1
  18    7   42 1
  19    8    9 2
  20    8   15 1
  21    9   10 1
  22   10   11 1
  23   11   12 2
  24   11   13 am
  25   13   25 1
  26   13   43 1
  27   14   44 1
  28   14   45 1
  29   14   46 1
  30   15   16 ar
  31   15   20 ar
  32   16   17 ar
  33   16   22 1
  34   17   18 ar
  35   17   47 1
  36   18   19 ar
  37   18   21 1
  38   19   20 ar
  39   19   23 1
  40   20   48 1
  41   24   28 2
  42   24   31 am
  43   24   25 1
  44   25   26 1
  45   25   49 1
  46   26   27 1
  47   26   29 1
  48   26   30 1
  49   27   50 1
  50   27   51 1
  51   27   52 1
  52   29   53 1
  53   29   54 1
  54   29   55 1
  55   30   56 1
  56   30   57 1
  57   30   58 1
  58   31   32 1
  59   31   34 1
  60   32   33 1
  61   32   59 1
  62   32   60 1
  63   33   34 1
  64   33   61 1
  65   33   62 1
  66   34   63 1
  67   34   64 1

#	End of record

