#	Name: ASD01028008
#	Creating user name:	WinNT
#	Creation time:	15. 06. 2019 18:56

#	Modifying user name:	WinNT
#	Modification time:	15. 06. 2019 18:56

#	Program:	/corina/corina34_cracker 3.40 0067  02.08.2006

@<TRIPOS>MOLECULE
ASD01028008
  47   50    0    0    0
SMALL
NO_CHARGES


@<TRIPOS>ATOM
   1 N1             0.1255     0.8230    -0.0096 N.ar    
   2 C2            -0.0069    -0.4357    -0.3980 C.ar    
   3 N3             1.0402    -1.1860    -0.7033 N.ar    
   4 C4             2.2764    -0.6958    -0.6296 C.ar    
   5 C5             2.4580     0.6266    -0.2243 C.ar    
   6 C6             1.3293     1.3843     0.0887 C.ar    
   7 C7             1.4679     2.7951     0.5247 C.ar    
   8 C8             0.3353     3.5456     0.8357 C.ar    
   9 C9             0.4702     4.8580     1.2408 C.ar    
  10 C10            1.7265     5.4289     1.3382 C.ar    
  11 C11            2.8540     4.6888     1.0308 C.ar    
  12 C12            2.7315     3.3737     0.6306 C.ar    
  13 C13            3.4434    -1.5441    -0.9732 C.ar    
  14 C14            3.2791    -2.9145    -1.1673 C.ar    
  15 C15            4.3687    -3.6990    -1.4868 C.ar    
  16 C16            5.6221    -3.1278    -1.6139 C.ar    
  17 C17            5.7911    -1.7683    -1.4223 C.ar    
  18 C18            4.7076    -0.9731    -1.1086 C.ar    
  19 N19           -1.2755    -0.9825    -0.4870 N.am    
  20 S20           -2.6045     0.0054    -0.4915 S.o2    
  21 O21           -3.7361    -0.8449    -0.6177 O.2     
  22 O22           -2.4322     0.9149     0.5866 O.2     
  23 C23           -2.5361     0.9649    -1.9678 C.ar    
  24 C24           -3.0325     0.4477    -3.1503 C.ar    
  25 C25           -1.9914     2.2356    -1.9400 C.ar    
  26 C26           -1.9362     2.9904    -3.0952 C.ar    
  27 C27           -2.4287     2.4717    -4.2860 C.ar    
  28 C28           -2.9804     1.1970    -4.3092 C.ar    
  29 N29           -2.3745     3.2323    -5.4562 N.pl3   
  30 H30            3.4478     1.0530    -0.1542 H       
  31 H31           -0.6460     3.1011     0.7594 H       
  32 H32           -0.4067     5.4405     1.4820 H       
  33 H33            1.8273     6.4564     1.6549 H       
  34 H34            3.8323     5.1396     1.1086 H       
  35 H35            3.6124     2.7968     0.3909 H       
  36 H36            2.3011    -3.3617    -1.0677 H       
  37 H37            4.2426    -4.7610    -1.6375 H       
  38 H38            6.4721    -3.7456    -1.8634 H       
  39 H39            6.7720    -1.3276    -1.5228 H       
  40 H40            4.8407     0.0883    -0.9593 H       
  41 H41           -1.3859    -1.9444    -0.5466 H       
  42 H42           -3.4609    -0.5435    -3.1677 H       
  43 H43           -1.6090     2.6384    -1.0137 H       
  44 H44           -1.5110     3.9829    -3.0727 H       
  45 H45           -3.3639     0.7907    -5.2334 H       
  46 H46           -1.9927     4.1238    -5.4380 H       
  47 H47           -2.7188     2.8691    -6.2872 H       
@<TRIPOS>BOND
   1    1    2 ar
   2    1    6 ar
   3    2    3 ar
   4    2   19 1
   5    3    4 ar
   6    4    5 ar
   7    4   13 1
   8    5    6 ar
   9    5   30 1
  10    6    7 1
  11    7    8 ar
  12    7   12 ar
  13    8    9 ar
  14    8   31 1
  15    9   10 ar
  16    9   32 1
  17   10   11 ar
  18   10   33 1
  19   11   12 ar
  20   11   34 1
  21   12   35 1
  22   13   14 ar
  23   13   18 ar
  24   14   15 ar
  25   14   36 1
  26   15   16 ar
  27   15   37 1
  28   16   17 ar
  29   16   38 1
  30   17   18 ar
  31   17   39 1
  32   18   40 1
  33   19   20 am
  34   19   41 1
  35   20   21 2
  36   20   22 2
  37   20   23 1
  38   23   24 ar
  39   23   25 ar
  40   24   28 ar
  41   24   42 1
  42   25   26 ar
  43   25   43 1
  44   26   27 ar
  45   26   44 1
  46   27   28 ar
  47   27   29 1
  48   28   45 1
  49   29   46 1
  50   29   47 1

#	End of record

