#	Name: ASD01908200
#	Creating user name:	WinNT
#	Creation time:	15. 06. 2019 19:54

#	Modifying user name:	WinNT
#	Modification time:	15. 06. 2019 19:54

#	Program:	/corina/corina34_cracker 3.40 0067  02.08.2006

@<TRIPOS>MOLECULE
ASD01908200
  23   24    0    0    0
SMALL
NO_CHARGES


@<TRIPOS>ATOM
   1 C1            -0.0294     1.2621     0.2127 C.2     
   2 N2            -0.0197    -0.0369     0.0013 N.2     
   3 C3             1.2346    -0.4792     0.0497 C.2     
   4 C4             2.0501     0.5744     0.3003 C.2     
   5 N5             1.2593     1.6754     0.4041 N.pl3   
   6 C6            -1.2243     2.1242     0.2330 C.2     
   7 O7            -1.1099     3.3174     0.4391 O.2     
   8 N8            -2.4440     1.5906     0.0232 N.am    
   9 C9            -3.5858     2.3892     0.1387 C.ar    
  10 C10           -3.5482     3.7190    -0.2609 C.ar    
  11 C11           -4.6786     4.5055    -0.1453 C.ar    
  12 C12           -5.8469     3.9689     0.3680 C.ar    
  13 C13           -5.8865     2.6457     0.7663 C.ar    
  14 C14           -4.7614     1.8530     0.6479 C.ar    
  15 Cl15          -4.6333     6.1679    -0.6436 Cl      
  16 H16            1.5493    -1.5033    -0.0871 H       
  17 H17            3.1252     0.5447     0.3988 H       
  18 H18            1.5539     2.5826     0.5804 H       
  19 H19           -2.5297     0.6524    -0.2079 H       
  20 H20           -2.6367     4.1378    -0.6610 H       
  21 H21           -6.7291     4.5854     0.4579 H       
  22 H22           -6.7993     2.2301     1.1667 H       
  23 H23           -4.7947     0.8181     0.9551 H       
@<TRIPOS>BOND
   1    1    2 2
   2    1    5 1
   3    1    6 1
   4    2    3 1
   5    3    4 2
   6    3   16 1
   7    4    5 1
   8    4   17 1
   9    5   18 1
  10    6    7 2
  11    6    8 am
  12    8    9 1
  13    8   19 1
  14    9   10 ar
  15    9   14 ar
  16   10   11 ar
  17   10   20 1
  18   11   12 ar
  19   11   15 1
  20   12   13 ar
  21   12   21 1
  22   13   14 ar
  23   13   22 1
  24   14   23 1

#	End of record

