#	Name: ASD04230173
#	Creating user name:	WinNT
#	Creation time:	15. 06. 2019 20:48

#	Modifying user name:	WinNT
#	Modification time:	15. 06. 2019 20:48

#	Program:	/corina/corina34_cracker 3.40 0067  02.08.2006

@<TRIPOS>MOLECULE
ASD04230173
  35   38    0    0    0
SMALL
NO_CHARGES


@<TRIPOS>ATOM
   1 C1             0.0763     1.3679     0.8456 C.2     
   2 C2             0.0733    -0.0862     0.6256 C.ar    
   3 C3            -1.1595    -0.7686     0.5510 C.ar    
   4 C4            -2.3843    -0.0753     0.6840 C.ar    
   5 C5            -2.3991     1.3255     0.8960 C.2     
   6 C6            -1.2112     2.0547     0.9858 C.2     
   7 C7             1.2659    -0.7951     0.4911 C.ar    
   8 C8             1.2451    -2.1631     0.2850 C.ar    
   9 C9             0.0502    -2.8497     0.2087 C.ar    
  10 C10           -1.1626    -2.1662     0.3395 C.ar    
  11 C11           -2.4424    -2.8671     0.2635 C.ar    
  12 C12           -3.6230    -2.1384     0.4009 C.ar    
  13 C13           -3.5959    -0.7807     0.6049 C.ar    
  14 O14            1.1251     1.9869     0.9148 O.2     
  15 S15           -2.4930    -4.6088     0.0014 S.3     
  16 C16           -4.2240    -4.8930     0.1672 C.ar    
  17 C17           -5.0406    -4.8944    -0.9575 C.ar    
  18 C18           -6.3965    -5.1179    -0.8238 C.ar    
  19 C19           -6.9425    -5.3399     0.4275 C.ar    
  20 C20           -6.1330    -5.3388     1.5490 C.ar    
  21 C21           -4.7753    -5.1221     1.4223 C.ar    
  22 C22           -1.2512     3.4699     1.2009 C.1     
  23 N23           -1.2829     4.5925     1.3714 N.1     
  24 C24           -3.6532     2.0042     1.0270 C.1     
  25 N25           -4.6481     2.5427     1.1310 N.1     
  26 H26            2.2103    -0.2742     0.5477 H       
  27 H27            2.1761    -2.7007     0.1820 H       
  28 H28            0.0520    -3.9176     0.0474 H       
  29 H29           -4.5729    -2.6492     0.3460 H       
  30 H30           -4.5272    -0.2435     0.7073 H       
  31 H31           -4.6151    -4.7204    -1.9348 H       
  32 H32           -7.0317    -5.1191    -1.6973 H       
  33 H33           -8.0035    -5.5141     0.5291 H       
  34 H34           -6.5628    -5.5121     2.5245 H       
  35 H35           -4.1438    -5.1218     2.2984 H       
@<TRIPOS>BOND
   1    1    2 1
   2    1   14 2
   3    1    6 1
   4    2    3 ar
   5    2    7 ar
   6    3    4 ar
   7    3   10 ar
   8    4    5 1
   9    4   13 ar
  10    5    6 2
  11    5   24 1
  12    6   22 1
  13    7    8 ar
  14    7   26 1
  15    8    9 ar
  16    8   27 1
  17    9   10 ar
  18    9   28 1
  19   10   11 ar
  20   11   12 ar
  21   11   15 1
  22   12   13 ar
  23   12   29 1
  24   13   30 1
  25   15   16 1
  26   16   17 ar
  27   16   21 ar
  28   17   18 ar
  29   17   31 1
  30   18   19 ar
  31   18   32 1
  32   19   20 ar
  33   19   33 1
  34   20   21 ar
  35   20   34 1
  36   21   35 1
  37   22   23 3
  38   24   25 3

#	End of record

