#	Name: ASD01911495
#	Creating user name:	WinNT
#	Creation time:	15. 06. 2019 19:57

#	Modifying user name:	WinNT
#	Modification time:	15. 06. 2019 19:57

#	Program:	/corina/corina34_cracker 3.40 0067  02.08.2006

@<TRIPOS>MOLECULE
ASD01911495
  38   40    0    0    0
SMALL
NO_CHARGES


@<TRIPOS>ATOM
   1 N1            -0.0070     1.4095    -0.0034 N.2     
   2 N2            -0.0070     0.0095    -0.0454 N.pl3   
   3 C3             1.2419     1.8244     0.0384 C.2     
   4 C4             2.0818     0.6982     0.0243 C.2     
   5 C5             1.2900    -0.4113    -0.0275 C.2     
   6 C6             1.7541    -1.8163    -0.0592 C.ar    
   7 C7             1.6864     3.2397     0.0905 C.ar    
   8 C8            -1.1915    -0.8509    -0.0982 C.3     
   9 C9            -1.6292    -1.0156    -1.5308 C.2     
  10 O10           -2.7016    -1.7683    -1.8226 O.3     
  11 O11           -1.0148    -0.4702    -2.4168 O.2     
  12 C12            0.7462     4.2678     0.0989 C.ar    
  13 C13            3.0450     3.5445     0.1368 C.ar    
  14 C14            3.4528     4.8622     0.1851 C.ar    
  15 C15            2.5153     5.8793     0.1875 C.ar    
  16 C16            1.1650     5.5821     0.1474 C.ar    
  17 C17            3.0161    -2.1481     0.4332 C.ar    
  18 C18            0.9286    -2.8151    -0.5763 C.ar    
  19 C19            1.3668    -4.1230    -0.6026 C.ar    
  20 C20            2.6218    -4.4451    -0.1171 C.ar    
  21 C21            3.4430    -3.4601     0.4013 C.ar    
  22 C22            4.8086    -3.8195     0.9275 C.3     
  23 H23            3.1615     0.7090     0.0500 H       
  24 H24           -0.9505    -1.8271     0.3226 H       
  25 H25           -1.9972    -0.3958     0.4778 H       
  26 H26           -2.9439    -1.8442    -2.7557 H       
  27 H27           -0.3083     4.0369     0.0673 H       
  28 H28            3.7777     2.7511     0.1353 H       
  29 H29            4.5057     5.0996     0.2214 H       
  30 H30            2.8387     6.9090     0.2258 H       
  31 H31            0.4372     6.3800     0.1491 H       
  32 H32            3.6582    -1.3799     0.8381 H       
  33 H33           -0.0514    -2.5651    -0.9549 H       
  34 H34            0.7288    -4.8972    -1.0026 H       
  35 H35            2.9602    -5.4705    -0.1395 H       
  36 H36            5.5387    -3.7493     0.1212 H       
  37 H37            5.0827    -3.1311     1.7269 H       
  38 H38            4.7921    -4.8382     1.3150 H       
@<TRIPOS>BOND
   1    1    2 1
   2    1    3 2
   3    2    8 1
   4    2    5 1
   5    3    4 1
   6    3    7 1
   7    4    5 2
   8    4   23 1
   9    5    6 1
  10    6   18 ar
  11    6   17 ar
  12    7   12 ar
  13    7   13 ar
  14    8    9 1
  15    8   24 1
  16    8   25 1
  17    9   10 1
  18    9   11 2
  19   10   26 1
  20   12   16 ar
  21   12   27 1
  22   13   14 ar
  23   13   28 1
  24   14   15 ar
  25   14   29 1
  26   15   16 ar
  27   15   30 1
  28   16   31 1
  29   17   21 ar
  30   17   32 1
  31   18   19 ar
  32   18   33 1
  33   19   20 ar
  34   19   34 1
  35   20   21 ar
  36   20   35 1
  37   21   22 1
  38   22   36 1
  39   22   37 1
  40   22   38 1

#	End of record

