#	Name: ASD03082343
#	Creating user name:	WinNT
#	Creation time:	15. 06. 2019 20:27

#	Modifying user name:	WinNT
#	Modification time:	15. 06. 2019 20:27

#	Program:	/corina/corina34_cracker 3.40 0067  02.08.2006

@<TRIPOS>MOLECULE
ASD03082343
  48   51    0    0    0
SMALL
NO_CHARGES


@<TRIPOS>ATOM
   1 C1             1.1355    -0.6509     0.2532 C.ar    
   2 C2            -0.0723    -0.2075     0.7751 C.ar    
   3 C3            -0.0948     0.8617     1.6611 C.ar    
   4 C4             1.0873     1.4849     2.0233 C.ar    
   5 C5             2.2976     1.0375     1.4978 C.ar    
   6 C6             2.3159    -0.0291     0.6145 C.ar    
   7 O7             1.3361     2.5354     2.8588 O.3     
   8 C8             2.7429     2.4650     3.1571 C.3     
   9 O9             3.3046     1.8089     2.0052 O.3     
  10 F10            3.2795     3.7489     3.3020 F       
  11 F11            2.9632     1.7057     4.3113 F       
  12 N12           -1.2669    -0.8377     0.4080 N.pl3   
  13 C13           -2.4459    -0.0964     0.3106 C.2     
  14 C14           -3.7964     1.5998     0.2928 C.2     
  15 C15           -4.3081     2.9865     0.3702 C.ar    
  16 C16           -3.4460     4.0796     0.2304 C.ar    
  17 C17           -3.9646     5.3557     0.3093 C.ar    
  18 N18           -5.2530     5.5523     0.5136 N.ar    
  19 C19           -6.1010     4.5498     0.6510 C.ar    
  20 C20           -5.6676     3.2401     0.5793 C.ar    
  21 Cl21          -7.7838     4.8819     0.9183 Cl      
  22 C22           -3.0465     6.5414     0.1603 C.3     
  23 N23           -3.6401    -0.5905     0.0759 N.2     
  24 N24           -4.5347     0.4919     0.0596 N.pl3   
  25 N25           -2.5418     1.2268     0.4465 N.2     
  26 C26           -5.9811     0.4320    -0.1651 C.3     
  27 C27           -6.6860     0.2294     1.1514 C.2     
  28 N28           -8.0305     0.1437     1.1897 N.am    
  29 O29           -6.0434     0.1435     2.1764 O.2     
  30 C30           -8.7157    -0.0532     2.4695 C.3     
  31 C31          -10.2263    -0.1157     2.2349 C.3     
  32 H32            1.1531    -1.4853    -0.4323 H       
  33 H33           -1.0341     1.2071     2.0670 H       
  34 H34            3.2542    -0.3756     0.2073 H       
  35 H35           -1.2757    -1.7896     0.2214 H       
  36 H36           -2.3900     3.9267     0.0636 H       
  37 H37           -6.3664     2.4245     0.6922 H       
  38 H38           -2.9862     6.8245    -0.8906 H       
  39 H39           -3.4364     7.3780     0.7402 H       
  40 H40           -2.0528     6.2794     0.5236 H       
  41 H41           -6.3174     1.3649    -0.6175 H       
  42 H42           -6.2111    -0.3989    -0.8320 H       
  43 H43           -8.5444     0.2125     0.3699 H       
  44 H44           -8.3794    -0.9861     2.9219 H       
  45 H45           -8.4857     0.7776     3.1365 H       
  46 H46          -10.5627     0.8172     1.7824 H       
  47 H47          -10.4564    -0.9466     1.5679 H       
  48 H48          -10.7362    -0.2623     3.1871 H       
@<TRIPOS>BOND
   1    1    2 ar
   2    1    6 ar
   3    1   32 1
   4    2    3 ar
   5    2   12 1
   6    3    4 ar
   7    3   33 1
   8    4    5 ar
   9    4    7 1
  10    5    6 ar
  11    5    9 1
  12    6   34 1
  13    7    8 1
  14    8    9 1
  15    8   10 1
  16    8   11 1
  17   12   13 1
  18   12   35 1
  19   13   23 2
  20   13   25 1
  21   14   15 1
  22   14   25 2
  23   14   24 1
  24   15   16 ar
  25   15   20 ar
  26   16   17 ar
  27   16   36 1
  28   17   18 ar
  29   17   22 1
  30   18   19 ar
  31   19   20 ar
  32   19   21 1
  33   20   37 1
  34   22   38 1
  35   22   39 1
  36   22   40 1
  37   23   24 1
  38   24   26 1
  39   26   27 1
  40   26   41 1
  41   26   42 1
  42   27   28 am
  43   27   29 2
  44   28   30 1
  45   28   43 1
  46   30   31 1
  47   30   44 1
  48   30   45 1
  49   31   46 1
  50   31   47 1
  51   31   48 1

#	End of record

