#	Name: ASD01730046
#	Creating user name:	WinNT
#	Creation time:	15. 06. 2019 19:23

#	Modifying user name:	WinNT
#	Modification time:	15. 06. 2019 19:23

#	Program:	/corina/corina34_cracker 3.40 0067  02.08.2006

@<TRIPOS>MOLECULE
ASD01730046
  24   25    0    0    0
SMALL
NO_CHARGES


@<TRIPOS>ATOM
   1 N1            -0.0166     1.3750     0.0096 N.pl3   
   2 C2             0.0021    -0.0041     0.0020 C.2     
   3 N3            -1.1790    -0.7076     0.0095 N.pl3   
   4 N4             1.1388    -0.6399    -0.0123 N.2     
   5 N5             1.1389     3.3811     0.0093 N.2     
   6 C6             1.1671     2.0801     0.0021 C.2     
   7 S7             2.6976     1.2077    -0.0166 S.3     
   8 C8             3.6866     2.3709    -0.9901 C.3     
   9 C9             3.4819     3.7646    -0.4530 C.ar    
  10 C10            2.2389     4.1847     0.0135 C.ar    
  11 C11            4.5585     4.6313    -0.4284 C.ar    
  12 C12            4.4123     5.9160     0.0608 C.ar    
  13 C13            3.1827     6.3421     0.5306 C.ar    
  14 C14            2.1019     5.4892     0.5105 C.ar    
  15 H15           -0.8632     1.8486     0.0162 H       
  16 H16           -2.0255    -0.2340     0.0201 H       
  17 H17           -1.1658    -1.6775     0.0042 H       
  18 H18            1.1520    -1.6098    -0.0176 H       
  19 H19            4.7407     2.1034    -0.9165 H       
  20 H20            3.3720     2.3326    -2.0330 H       
  21 H21            5.5203     4.3025    -0.7934 H       
  22 H22            5.2583     6.5872     0.0766 H       
  23 H23            3.0706     7.3454     0.9142 H       
  24 H24            1.1442     5.8265     0.8787 H       
@<TRIPOS>BOND
   1    1    2 1
   2    1    6 1
   3    1   15 1
   4    2    3 1
   5    2    4 2
   6    3   16 1
   7    3   17 1
   8    4   18 1
   9    5    6 2
  10    5   10 1
  11    6    7 1
  12    7    8 1
  13    8    9 1
  14    8   19 1
  15    8   20 1
  16    9   10 ar
  17    9   11 ar
  18   10   14 ar
  19   11   12 ar
  20   11   21 1
  21   12   13 ar
  22   12   22 1
  23   13   14 ar
  24   13   23 1
  25   14   24 1

#	End of record

