#	Name: ASD03240822
#	Creating user name:	WinNT
#	Creation time:	15. 06. 2019 20:35

#	Modifying user name:	WinNT
#	Modification time:	15. 06. 2019 20:35

#	Program:	/corina/corina34_cracker 3.40 0067  02.08.2006

@<TRIPOS>MOLECULE
ASD03240822
  44   48    0    0    0
SMALL
NO_CHARGES


@<TRIPOS>ATOM
   1 N1            -0.0168     1.3895     0.0097 N.pl3   
   2 C2             0.0021    -0.0041     0.0020 C.ar    
   3 C3             1.2168    -0.6818    -0.0132 C.ar    
   4 C4             1.2383    -2.0591    -0.0213 C.ar    
   5 C5             0.0396    -2.7748    -0.0137 C.ar    
   6 C6            -1.1780    -2.0920     0.0021 C.ar    
   7 C7            -1.1937    -0.7147     0.0154 C.ar    
   8 N8             2.0560    -6.8633    -1.4434 N.pl3   
   9 C9             2.0919    -8.2313    -1.4654 C.2     
  10 N10            1.1837    -8.9786    -0.8134 N.2     
  11 C11            0.2128    -8.4420    -0.1199 C.2     
  12 C12            0.1103    -6.9862    -0.0504 C.ar    
  13 C13           -0.9063    -6.3540     0.6745 C.ar    
  14 C14           -0.9295    -4.9640     0.6871 C.ar    
  15 C15            0.0597    -4.2541    -0.0228 C.ar    
  16 N16            1.0071    -4.8878    -0.6985 N.ar    
  17 C17            1.0665    -6.2077    -0.7363 C.ar    
  18 C18            3.1826    -8.5902    -2.2457 C.2     
  19 C19            3.7913    -7.4212    -2.6849 C.2     
  20 N20            3.1243    -6.3935    -2.2168 N.2     
  21 C21           -1.9822    -4.2376     1.4368 C.ar    
  22 C22           -3.3239    -4.5725     1.2611 C.ar    
  23 C23           -4.2995    -3.8929     1.9616 C.ar    
  24 C24           -3.9482    -2.8807     2.8366 C.ar    
  25 C25           -2.6184    -2.5439     3.0151 C.ar    
  26 C26           -1.6337    -3.2208     2.3246 C.ar    
  27 C27            5.0148    -7.3461    -3.5614 C.3     
  28 H28            0.8165     1.8859     0.0044 H       
  29 H29           -0.8634     1.8631     0.0163 H       
  30 H30            2.1437    -0.1277    -0.0191 H       
  31 H31            2.1817    -2.5848    -0.0338 H       
  32 H32           -2.1067    -2.6432     0.0076 H       
  33 H33           -2.1353    -0.1860     0.0316 H       
  34 H34           -0.5032    -9.0664     0.3938 H       
  35 H35           -1.6497    -6.9282     1.2075 H       
  36 H36            3.5007    -9.5974    -2.4710 H       
  37 H37           -3.5994    -5.3621     0.5777 H       
  38 H38           -5.3393    -4.1515     1.8263 H       
  39 H39           -4.7151    -2.3510     3.3822 H       
  40 H40           -2.3499    -1.7526     3.6992 H       
  41 H41           -0.5955    -2.9603     2.4683 H       
  42 H42            4.7114    -7.3303    -4.6082 H       
  43 H43            5.5718    -6.4381    -3.3308 H       
  44 H44            5.6461    -8.2158    -3.3793 H       
@<TRIPOS>BOND
   1    1    2 1
   2    1   28 1
   3    1   29 1
   4    2    3 ar
   5    2    7 ar
   6    3    4 ar
   7    3   30 1
   8    4    5 ar
   9    4   31 1
  10    5    6 ar
  11    5   15 1
  12    6    7 ar
  13    6   32 1
  14    7   33 1
  15    8    9 1
  16    8   17 1
  17    8   20 1
  18    9   10 1
  19    9   18 2
  20   10   11 2
  21   11   12 1
  22   11   34 1
  23   12   13 ar
  24   12   17 ar
  25   13   14 ar
  26   13   35 1
  27   14   15 ar
  28   14   21 1
  29   15   16 ar
  30   16   17 ar
  31   18   19 1
  32   18   36 1
  33   19   20 2
  34   19   27 1
  35   21   22 ar
  36   21   26 ar
  37   22   23 ar
  38   22   37 1
  39   23   24 ar
  40   23   38 1
  41   24   25 ar
  42   24   39 1
  43   25   26 ar
  44   25   40 1
  45   26   41 1
  46   27   42 1
  47   27   43 1
  48   27   44 1

#	End of record

