#	Name: ASD06660020
#	Creating user name:	WinNT
#	Creation time:	15. 06. 2019 21:07

#	Modifying user name:	WinNT
#	Modification time:	15. 06. 2019 21:07

#	Program:	/corina/corina34_cracker 3.40 0067  02.08.2006

@<TRIPOS>MOLECULE
ASD06660020
  80   84    0    0    0
SMALL
NO_CHARGES


@<TRIPOS>ATOM
   1 C1            -0.0184     1.5028     0.0103 C.2     
   2 C2             0.0021    -0.0041     0.0020 C.3     
   3 C3            -0.7241    -0.5171    -1.2431 C.3     
   4 O4             1.0197     2.1211     0.0037 O.2     
   5 O5            -1.1898     2.1580     0.0194 O.3     
   6 C6             1.8021    -1.2371     0.9985 C.2     
   7 N7             1.3897    -0.4735    -0.0138 N.am    
   8 C8             2.2319    -0.0768    -1.1352 C.3     
   9 C9             3.7099    -0.2386    -0.7783 C.3     
  10 C10            3.9274    -1.6482    -0.2152 C.3     
  11 C11            3.2095    -1.7456     1.1340 C.3     
  12 C12            3.9615    -0.9035     2.1678 C.3     
  13 C13            3.2518    -1.0030     3.5195 C.3     
  14 C14            3.2259    -2.4633     3.9755 C.3     
  15 C15            2.4767    -3.3069     2.9420 C.3     
  16 C16            3.1861    -3.2064     1.5902 C.3     
  17 O17            0.9997    -1.5329     1.8584 O.2     
  18 C18           -0.8113    -2.0207    -1.1900 C.ar    
  19 C19           -1.8983    -2.6278    -0.5884 C.ar    
  20 C20           -1.9814    -4.0054    -0.5380 C.ar    
  21 C21           -0.9713    -4.7813    -1.0925 C.ar    
  22 C22            0.1192    -4.1682    -1.6960 C.ar    
  23 C23            0.1932    -2.7901    -1.7480 C.ar    
  24 N24           -1.0519    -6.1748    -1.0428 N.3     
  25 C25            0.1154    -6.7927    -1.6847 C.3     
  26 C26           -0.0755    -8.3100    -1.7414 C.3     
  27 C27           -0.2456    -8.8516    -0.3193 C.3     
  28 C28           -1.4383    -8.1570     0.3437 C.3     
  29 C29           -1.2079    -6.6440     0.3399 C.3     
  30 C30           -0.4975   -10.3598    -0.3732 C.3     
  31 N31           -0.5413   -10.8966     0.9892 N.pl3   
  32 C32           -0.7596   -12.2539     1.1947 C.ar    
  33 C33           -0.9358   -13.0971     0.1020 C.ar    
  34 C34           -1.1521   -14.4454     0.3210 C.ar    
  35 C35           -1.1853   -14.9073     1.6304 C.ar    
  36 C36           -1.0027   -14.0145     2.6670 C.ar    
  37 N37           -0.7927   -12.7337     2.4282 N.ar    
  38 C38           -1.3481   -15.3920    -0.8351 C.3     
  39 H39           -0.4983    -0.3791     0.8948 H       
  40 H40           -1.7288    -0.0959    -1.2772 H       
  41 H41           -0.1736    -0.2164    -2.1345 H       
  42 H42           -1.1523     3.1243     0.0245 H       
  43 H43            1.9997    -0.7011    -1.9980 H       
  44 H44            2.0336     0.9661    -1.3827 H       
  45 H45            4.3189    -0.1039    -1.6723 H       
  46 H46            3.9883     0.5018    -0.0283 H       
  47 H47            3.5160    -2.3861    -0.9040 H       
  48 H48            4.9936    -1.8281    -0.0776 H       
  49 H49            4.9821    -1.2738     2.2651 H       
  50 H50            3.9818     0.1370     1.8437 H       
  51 H51            3.7859    -0.4020     4.2554 H       
  52 H52            2.2306    -0.6347     3.4216 H       
  53 H53            4.2471    -2.8315     4.0737 H       
  54 H54            2.7198    -2.5344     4.9382 H       
  55 H55            2.4588    -4.3473     3.2664 H       
  56 H56            1.4553    -2.9392     2.8445 H       
  57 H57            2.6529    -3.8084     0.8544 H       
  58 H58            4.2079    -3.5730     1.6880 H       
  59 H59           -2.6831    -2.0240    -0.1572 H       
  60 H60           -2.8305    -4.4790    -0.0677 H       
  61 H61            0.9062    -4.7685    -2.1281 H       
  62 H62            1.0385    -2.3127    -2.2213 H       
  63 H63            0.2226    -6.4021    -2.6967 H       
  64 H64            1.0115    -6.5606    -1.1092 H       
  65 H65           -0.9638    -8.5434    -2.3284 H       
  66 H66            0.7981    -8.7697    -2.2037 H       
  67 H67            0.6581    -8.6527     0.2568 H       
  68 H68           -2.3480    -8.3879    -0.2105 H       
  69 H69           -1.5385    -8.5072     1.3710 H       
  70 H70           -0.3056    -6.4127     0.9059 H       
  71 H71           -2.0619    -6.1455     0.7984 H       
  72 H72           -1.4485   -10.5517    -0.8701 H       
  73 H73            0.3065   -10.8428    -0.9284 H       
  74 H74           -0.4180   -10.3049     1.7478 H       
  75 H75           -0.9043   -12.7040    -0.9034 H       
  76 H76           -1.3525   -15.9544     1.8353 H       
  77 H77           -1.0277   -14.3695     3.6867 H       
  78 H78           -0.3820   -15.7884    -1.1479 H       
  79 H79           -1.9951   -16.2132    -0.5267 H       
  80 H80           -1.8087   -14.8592    -1.6669 H       
@<TRIPOS>BOND
   1    1    2 1
   2    1    4 2
   3    1    5 1
   4    2    3 1
   5    2    7 1
   6    2   39 1
   7    3   18 1
   8    3   40 1
   9    3   41 1
  10    5   42 1
  11    6    7 am
  12    6   11 1
  13    6   17 2
  14    7    8 1
  15    8    9 1
  16    8   43 1
  17    8   44 1
  18    9   10 1
  19    9   45 1
  20    9   46 1
  21   10   11 1
  22   10   47 1
  23   10   48 1
  24   11   12 1
  25   11   16 1
  26   12   13 1
  27   12   49 1
  28   12   50 1
  29   13   14 1
  30   13   51 1
  31   13   52 1
  32   14   15 1
  33   14   53 1
  34   14   54 1
  35   15   16 1
  36   15   55 1
  37   15   56 1
  38   16   57 1
  39   16   58 1
  40   18   19 ar
  41   18   23 ar
  42   19   20 ar
  43   19   59 1
  44   20   21 ar
  45   20   60 1
  46   21   22 ar
  47   21   24 1
  48   22   23 ar
  49   22   61 1
  50   23   62 1
  51   24   25 1
  52   24   29 1
  53   25   26 1
  54   25   63 1
  55   25   64 1
  56   26   27 1
  57   26   65 1
  58   26   66 1
  59   27   28 1
  60   27   30 1
  61   27   67 1
  62   28   29 1
  63   28   68 1
  64   28   69 1
  65   29   70 1
  66   29   71 1
  67   30   31 1
  68   30   72 1
  69   30   73 1
  70   31   32 1
  71   31   74 1
  72   32   33 ar
  73   32   37 ar
  74   33   34 ar
  75   33   75 1
  76   34   35 ar
  77   34   38 1
  78   35   36 ar
  79   35   76 1
  80   36   37 ar
  81   36   77 1
  82   38   78 1
  83   38   79 1
  84   38   80 1

#	End of record

