#	Name: ASD02198118
#	Creating user name:	WinNT
#	Creation time:	15. 06. 2019 20:18

#	Modifying user name:	WinNT
#	Modification time:	15. 06. 2019 20:18

#	Program:	/corina/corina34_cracker 3.40 0067  02.08.2006

@<TRIPOS>MOLECULE
ASD02198118
  51   54    0    0    0
SMALL
NO_CHARGES


@<TRIPOS>ATOM
   1 C1            -0.5317     1.4228    -0.9625 C.2     
   2 C2            -0.4103     0.0511    -1.0294 C.2     
   3 C3            -1.2624    -0.8440    -0.3059 C.1     
   4 S4             0.6362     2.1852    -1.9430 S.3     
   5 C5             1.3057     0.6451    -2.4572 C.2     
   6 C6             0.6159    -0.3858    -1.8641 C.2     
   7 C7             2.3875     0.4893    -3.3454 C.2     
   8 C8             2.9693     1.6721    -4.0172 C.ar    
   9 O9             2.8446    -0.6204    -3.5607 O.2     
  10 N10            0.9117    -1.7235    -2.0749 N.pl3   
  11 N11           -1.4734     2.0874    -0.2098 N.pl3   
  12 N12           -1.9384    -1.5541     0.2680 N.1     
  13 C13            4.1859     2.1981    -3.5808 C.ar    
  14 C14           -1.4330     3.4738    -0.1120 C.ar    
  15 C15           -2.6198     4.2007    -0.0512 C.ar    
  16 C16           -2.5846     5.5624     0.0449 C.ar    
  17 C17            4.7234     3.3009    -4.2118 C.ar    
  18 C18            4.0592     3.8864    -5.2751 C.ar    
  19 C19            2.8528     3.3709    -5.7137 C.ar    
  20 C20            2.3061     2.2638    -5.0949 C.ar    
  21 Cl21           0.7923     1.6173    -5.6464 Cl      
  22 C22           -1.3526     6.2284     0.0829 C.ar    
  23 C23           -0.1615     5.4934     0.0220 C.ar    
  24 C24           -0.2058     4.1315    -0.0692 C.ar    
  25 C25           -1.3099     7.6920     0.1857 C.2     
  26 O26           -2.3424     8.3267     0.2379 O.2     
  27 C27            0.0165     8.4061     0.2264 C.3     
  28 C28           -0.2192     9.9140     0.3343 C.3     
  29 C29            1.1244    10.6575     0.5035 C.3     
  30 C30            0.9796    11.8235    -0.5010 C.3     
  31 O31            0.0572    11.3201    -1.5121 O.3     
  32 C32           -0.7986    10.4503    -0.9567 C.2     
  33 O33           -1.8716    10.1407    -1.4180 O.2     
  34 H34            1.6386    -1.9720    -2.6671 H       
  35 H35            0.3918    -2.4111    -1.6301 H       
  36 H36           -2.1652     1.5886     0.2523 H       
  37 H37            4.7055     1.7431    -2.7506 H       
  38 H38           -3.5691     3.6865    -0.0806 H       
  39 H39           -3.5052     6.1252     0.0912 H       
  40 H40            5.6649     3.7086    -3.8746 H       
  41 H41            4.4844     4.7500    -5.7648 H       
  42 H42            2.3393     3.8327    -6.5439 H       
  43 H43            0.7904     6.0028     0.0510 H       
  44 H44            0.7120     3.5641    -0.1162 H       
  45 H45            0.5866     8.0647     1.0904 H       
  46 H46            0.5737     8.1898    -0.6851 H       
  47 H47           -0.8828    10.1347     1.1704 H       
  48 H48            1.2350    11.0330     1.5208 H       
  49 H49            1.9612    10.0136     0.2329 H       
  50 H50            0.5618    12.7011    -0.0078 H       
  51 H51            1.9440    12.0610    -0.9500 H       
@<TRIPOS>BOND
   1    1    2 2
   2    1    4 1
   3    1   11 1
   4    2    3 1
   5    2    6 1
   6    3   12 3
   7    4    5 1
   8    5    6 2
   9    5    7 1
  10    6   10 1
  11    7    8 1
  12    7    9 2
  13    8   13 ar
  14    8   20 ar
  15   10   34 1
  16   10   35 1
  17   11   14 1
  18   11   36 1
  19   13   17 ar
  20   13   37 1
  21   14   15 ar
  22   14   24 ar
  23   15   16 ar
  24   15   38 1
  25   16   22 ar
  26   16   39 1
  27   17   18 ar
  28   17   40 1
  29   18   19 ar
  30   18   41 1
  31   19   20 ar
  32   19   42 1
  33   20   21 1
  34   22   23 ar
  35   22   25 1
  36   23   24 ar
  37   23   43 1
  38   24   44 1
  39   25   26 2
  40   25   27 1
  41   27   28 1
  42   27   45 1
  43   27   46 1
  44   28   29 1
  45   28   32 1
  46   28   47 1
  47   29   30 1
  48   29   48 1
  49   29   49 1
  50   30   31 1
  51   30   50 1
  52   30   51 1
  53   31   32 1
  54   32   33 2

#	End of record

