#	Name: ASD05313052
#	Creating user name:	WinNT
#	Creation time:	15. 06. 2019 20:58

#	Modifying user name:	WinNT
#	Modification time:	15. 06. 2019 20:58

#	Program:	/corina/corina34_cracker 3.40 0067  02.08.2006

@<TRIPOS>MOLECULE
ASD05313052
  38   41    0    0    0
SMALL
NO_CHARGES


@<TRIPOS>ATOM
   1 C1            -0.0722     0.8173     1.0243 C.2     
   2 C2             0.1139    -0.6190     0.5967 C.3     
   3 N3             0.9300     1.7305     1.0506 N.pl3   
   4 N4             1.4570    -0.7184    -0.0051 N.am    
   5 C5             2.5713    -0.0367     0.6708 C.3     
   6 C6             2.3166     1.4754     0.6643 C.3     
   7 N7            -0.9038     2.6402     1.7086 N.2     
   8 N8            -1.1571     1.4082     1.4271 N.2     
   9 C9             0.3717     2.8898     1.4952 C.2     
  10 O10            2.6013     5.5869     1.7539 O.3     
  11 N11            2.3344     4.4367     1.4936 N.2     
  12 C12            1.0652     4.1813     1.7017 C.2     
  13 C13            0.4888     5.3979     2.1658 C.2     
  14 C14            1.5257     6.2654     2.1785 C.2     
  15 C15            1.4813     7.7143     2.5906 C.3     
  16 C16            1.6575    -1.4144    -1.1417 C.2     
  17 O17            2.7491    -1.4038    -1.6764 O.2     
  18 C18            0.5502    -2.1904    -1.7379 C.ar    
  19 C19            0.3188    -2.1386    -3.1148 C.ar    
  20 C20           -0.7190    -2.8674    -3.6649 C.ar    
  21 C21           -1.5269    -3.6458    -2.8542 C.ar    
  22 C22           -1.3019    -3.6999    -1.4900 C.ar    
  23 C23           -0.2657    -2.9830    -0.9288 C.ar    
  24 Cl24          -1.0100    -2.8058    -5.3752 Cl      
  25 Cl25           1.3312    -1.1615    -4.1316 Cl      
  26 H26            0.0448    -1.2770     1.4630 H       
  27 H27           -0.6441    -0.8895    -0.1384 H       
  28 H28            2.6434    -0.3892     1.6997 H       
  29 H29            3.5019    -0.2514     0.1455 H       
  30 H30            2.4946     1.8702    -0.3360 H       
  31 H31            2.9874     1.9608     1.3731 H       
  32 H32           -0.5382     5.5844     2.4429 H       
  33 H33            2.4754     8.1504     2.4929 H       
  34 H34            0.7835     8.2531     1.9495 H       
  35 H35            1.1527     7.7872     3.6273 H       
  36 H36           -2.3368    -4.2132    -3.2883 H       
  37 H37           -1.9365    -4.3092    -0.8635 H       
  38 H38           -0.0892    -3.0307     0.1356 H       
@<TRIPOS>BOND
   1    1    2 1
   2    1    3 1
   3    1    8 2
   4    2    4 1
   5    2   26 1
   6    2   27 1
   7    3    6 1
   8    3    9 1
   9    4    5 1
  10    4   16 am
  11    5    6 1
  12    5   28 1
  13    5   29 1
  14    6   30 1
  15    6   31 1
  16    7    8 1
  17    7    9 2
  18    9   12 1
  19   10   11 1
  20   10   14 1
  21   11   12 2
  22   12   13 1
  23   13   14 2
  24   13   32 1
  25   14   15 1
  26   15   33 1
  27   15   34 1
  28   15   35 1
  29   16   17 2
  30   16   18 1
  31   18   19 ar
  32   18   23 ar
  33   19   20 ar
  34   19   25 1
  35   20   21 ar
  36   20   24 1
  37   21   22 ar
  38   21   36 1
  39   22   23 ar
  40   22   37 1
  41   23   38 1

#	End of record

