#	Name: ASD01915141
#	Creating user name:	WinNT
#	Creation time:	15. 06. 2019 20:04

#	Modifying user name:	WinNT
#	Modification time:	15. 06. 2019 20:04

#	Program:	/corina/corina34_cracker 3.40 0067  02.08.2006

@<TRIPOS>MOLECULE
ASD01915141
  41   44    0    0    0
SMALL
NO_CHARGES


@<TRIPOS>ATOM
   1 C1            -0.0169     1.3924     0.0097 C.ar    
   2 C2             0.0021    -0.0041     0.0020 C.ar    
   3 N3            -1.1430    -0.6903     0.0096 N.ar    
   4 C4            -2.3136    -0.0965     0.0244 C.ar    
   5 C5            -2.4136     1.2863     0.0324 C.ar    
   6 C6            -1.2657     2.0479     0.0305 C.ar    
   7 C7             1.3286     1.9586    -0.0001 C.2     
   8 C8             2.3058     1.0549    -0.0143 C.2     
   9 S9             1.6661    -0.5766    -0.0169 S.3     
  10 C10            1.5853     3.4181     0.0048 C.ar    
  11 C11            1.2153     4.1901     1.1053 C.ar    
  12 S12            4.0232     1.4487    -0.0295 S.o2    
  13 O13            4.6881     0.3230    -0.5861 O.2     
  14 O14            4.1296     2.7592    -0.5686 O.2     
  15 C15            4.5483     1.5570     1.6490 C.ar    
  16 C16            5.0204     0.4342     2.2960 C.ar    
  17 C17            4.4914     2.7697     2.3132 C.ar    
  18 C18            4.9025     2.8639     3.6308 C.ar    
  19 C19            5.3725     1.7477     4.2916 C.ar    
  20 C20            5.4367     0.5220     3.6262 C.ar    
  21 C21            1.4568     5.5489     1.1040 C.ar    
  22 C22            2.0642     6.1451     0.0137 C.ar    
  23 C23            2.4336     5.3842    -1.0813 C.ar    
  24 C24            2.2029     4.0240    -1.0890 C.ar    
  25 C25            5.9230    -0.6408     4.3059 C.1     
  26 N26            6.3088    -1.5632     4.8451 N.1     
  27 C27            1.0576     6.3847     2.2927 C.3     
  28 H28           -3.2129    -0.6945     0.0301 H       
  29 H29           -3.3830     1.7623     0.0438 H       
  30 H30           -1.3209     3.1265     0.0370 H       
  31 H31            0.7404     3.7257     1.9568 H       
  32 H32            5.0679    -0.5108     1.7753 H       
  33 H33            4.1247     3.6467     1.8006 H       
  34 H34            4.8558     3.8135     4.1431 H       
  35 H35            5.6938     1.8228     5.3199 H       
  36 H36            2.2506     7.2089     0.0170 H       
  37 H37            2.9075     5.8553    -1.9297 H       
  38 H38            2.4920     3.4310    -1.9441 H       
  39 H39            1.8829     6.4228     3.0038 H       
  40 H40            0.8161     7.3948     1.9620 H       
  41 H41            0.1851     5.9411     2.7723 H       
@<TRIPOS>BOND
   1    1    2 ar
   2    1    7 1
   3    1    6 ar
   4    2    3 ar
   5    2    9 1
   6    3    4 ar
   7    4    5 ar
   8    4   28 1
   9    5    6 ar
  10    5   29 1
  11    6   30 1
  12    7    8 2
  13    7   10 1
  14    8    9 1
  15    8   12 1
  16   10   11 ar
  17   10   24 ar
  18   11   21 ar
  19   11   31 1
  20   12   13 2
  21   12   14 2
  22   12   15 1
  23   15   16 ar
  24   15   17 ar
  25   16   20 ar
  26   16   32 1
  27   17   18 ar
  28   17   33 1
  29   18   19 ar
  30   18   34 1
  31   19   20 ar
  32   19   35 1
  33   20   25 1
  34   21   22 ar
  35   21   27 1
  36   22   23 ar
  37   22   36 1
  38   23   24 ar
  39   23   37 1
  40   24   38 1
  41   25   26 3
  42   27   39 1
  43   27   40 1
  44   27   41 1

#	End of record

