#	Name: ASD06020166
#	Creating user name:	WinNT
#	Creation time:	15. 06. 2019 21:04

#	Modifying user name:	WinNT
#	Modification time:	15. 06. 2019 21:04

#	Program:	/corina/corina34_cracker 3.40 0067  02.08.2006

@<TRIPOS>MOLECULE
ASD06020166
  23   25    0    0    0
SMALL
NO_CHARGES


@<TRIPOS>ATOM
   1 C1            -0.0168     1.3863     0.0097 C.ar    
   2 C2             0.0021    -0.0041     0.0020 C.ar    
   3 C3             1.2311    -0.6797    -0.0133 C.ar    
   4 C4             2.4024     0.1159    -0.0198 C.ar    
   5 C5             2.2881     1.4730    -0.0110 C.ar    
   6 N6             1.1082     2.0703     0.0026 N.ar    
   7 S7            -1.2873    -1.2022     0.0073 S.3     
   8 C8            -0.0975    -2.4976    -0.0112 C.2     
   9 N9             1.0988    -2.0069    -0.0196 N.2     
  10 C10           -0.4190    -3.9399    -0.0159 C.ar    
  11 C11           -1.7505    -4.3623    -0.0059 C.ar    
  12 C12           -2.0435    -5.7115    -0.0109 C.ar    
  13 C13           -1.0224    -6.6452    -0.0258 C.ar    
  14 C14            0.2982    -6.2358    -0.0353 C.ar    
  15 C15            0.6074    -4.8882    -0.0363 C.ar    
  16 F16            1.8981    -4.4893    -0.0513 F       
  17 Cl17          -3.0339    -3.1935     0.0134 Cl      
  18 Br18           4.1091    -0.6980    -0.0397 Br      
  19 H19           -0.9617     1.9093     0.0170 H       
  20 H20            3.1836     2.0767    -0.0156 H       
  21 H21           -3.0726    -6.0391    -0.0028 H       
  22 H22           -1.2582    -7.6991    -0.0296 H       
  23 H23            1.0900    -6.9703    -0.0466 H       
@<TRIPOS>BOND
   1    1    2 ar
   2    1    6 ar
   3    1   19 1
   4    2    3 ar
   5    2    7 1
   6    3    4 ar
   7    3    9 1
   8    4    5 ar
   9    4   18 1
  10    5    6 ar
  11    5   20 1
  12    7    8 1
  13    8    9 2
  14    8   10 1
  15   10   11 ar
  16   10   15 ar
  17   11   12 ar
  18   11   17 1
  19   12   13 ar
  20   12   21 1
  21   13   14 ar
  22   13   22 1
  23   14   15 ar
  24   14   23 1
  25   15   16 1

#	End of record

