#	Name: ASD02508218
#	Creating user name:	WinNT
#	Creation time:	15. 06. 2019 20:24

#	Modifying user name:	WinNT
#	Modification time:	15. 06. 2019 20:24

#	Program:	/corina/corina34_cracker 3.40 0067  02.08.2006

@<TRIPOS>MOLECULE
ASD02508218
  49   52    0    0    0
SMALL
NO_CHARGES


@<TRIPOS>ATOM
   1 C1             0.2483     0.6125    -0.3445 C.ar    
   2 C2             0.0011    -0.7453    -0.5455 C.ar    
   3 C3            -1.2922    -1.2320    -0.4367 C.ar    
   4 C4            -2.3284    -0.3718    -0.1303 C.ar    
   5 C5            -2.0822     0.9756     0.0686 C.ar    
   6 C6            -0.7960     1.4689    -0.0324 C.ar    
   7 S7            -3.9717    -0.9926     0.0075 S.o2    
   8 N8            -4.2470    -1.2990     1.6115 N.am    
   9 C9            -3.4672    -2.2409     2.2865 C.ar    
  10 N10            1.6196     0.7979    -0.5178 N.am    
  11 C11            2.1571    -0.4032    -0.8091 C.2     
  12 O12            1.1896    -1.3334    -0.8270 O.3     
  13 O13           -4.8360     0.0768    -0.3509 O.2     
  14 O14           -3.9809    -2.2528    -0.6490 O.2     
  15 C15            2.3435     2.0664    -0.4041 C.3     
  16 O16            3.3359    -0.6119    -1.0227 O.2     
  17 C17           -2.9431    -1.9424     3.5378 C.ar    
  18 C18           -3.2188    -3.4802     1.7105 C.ar    
  19 C19           -2.4473    -4.4092     2.3806 C.ar    
  20 C20           -1.9227    -4.1069     3.6239 C.ar    
  21 C21           -2.1724    -2.8760     4.2025 C.ar    
  22 C22           -1.5987    -2.5510     5.5576 C.3     
  23 C23           -2.1772    -5.7541     1.7565 C.3     
  24 C24            2.7996     2.2587     1.0193 C.ar    
  25 C25            4.0347     1.7840     1.4195 C.ar    
  26 C26            1.9852     2.9146     1.9234 C.ar    
  27 C27            2.4035     3.0909     3.2291 C.ar    
  28 C28            3.6360     2.6109     3.6308 C.ar    
  29 C29            4.4530     1.9603     2.7252 C.ar    
  30 H30           -1.4893    -2.2825    -0.5916 H       
  31 H31           -2.8975     1.6425     0.3072 H       
  32 H32           -0.6056     2.5205     0.1235 H       
  33 H33           -4.9499    -0.8243     2.0822 H       
  34 H34            3.2106     2.0504    -1.0644 H       
  35 H35            1.6852     2.8872    -0.6887 H       
  36 H36           -3.1378    -0.9813     3.9903 H       
  37 H37           -3.6288    -3.7172     0.7398 H       
  38 H38           -1.3203    -4.8355     4.1461 H       
  39 H39           -0.6180    -2.0911     5.4361 H       
  40 H40           -2.2624    -1.8597     6.0769 H       
  41 H41           -1.5006    -3.4672     6.1399 H       
  42 H42           -1.2680    -5.7007     1.1576 H       
  43 H43           -2.0522    -6.5003     2.5411 H       
  44 H44           -3.0161    -6.0339     1.1192 H       
  45 H45            4.6727     1.2751     0.7121 H       
  46 H46            1.0222     3.2896     1.6096 H       
  47 H47            1.7675     3.6040     3.9353 H       
  48 H48            3.9630     2.7490     4.6508 H       
  49 H49            5.4159     1.5853     3.0390 H       
@<TRIPOS>BOND
   1    1    2 ar
   2    1   10 1
   3    1    6 ar
   4    2    3 ar
   5    2   12 1
   6    3    4 ar
   7    3   30 1
   8    4    5 ar
   9    4    7 1
  10    5    6 ar
  11    5   31 1
  12    6   32 1
  13    7    8 am
  14    7   13 2
  15    7   14 2
  16    8    9 1
  17    8   33 1
  18    9   17 ar
  19    9   18 ar
  20   10   11 am
  21   10   15 1
  22   11   12 1
  23   11   16 2
  24   15   24 1
  25   15   34 1
  26   15   35 1
  27   17   21 ar
  28   17   36 1
  29   18   19 ar
  30   18   37 1
  31   19   20 ar
  32   19   23 1
  33   20   21 ar
  34   20   38 1
  35   21   22 1
  36   22   39 1
  37   22   40 1
  38   22   41 1
  39   23   42 1
  40   23   43 1
  41   23   44 1
  42   24   25 ar
  43   24   26 ar
  44   25   29 ar
  45   25   45 1
  46   26   27 ar
  47   26   46 1
  48   27   28 ar
  49   27   47 1
  50   28   29 ar
  51   28   48 1
  52   29   49 1

#	End of record

