#	Name: ASD01360003
#	Creating user name:	WinNT
#	Creation time:	15. 06. 2019 19:16

#	Modifying user name:	WinNT
#	Modification time:	15. 06. 2019 19:16

#	Program:	/corina/corina34_cracker 3.40 0067  02.08.2006

@<TRIPOS>MOLECULE
ASD01360003
  48   50    0    0    0
SMALL
NO_CHARGES


@<TRIPOS>ATOM
   1 O1             0.0779     1.1989     0.0703 O.3     
   2 C2             0.3586    -0.2146     0.1668 C.3     
   3 C3             1.3704     1.8394    -0.0011 C.3     
   4 C4             1.5679    -0.3125     1.1231 C.3     
   5 C5             2.2488     1.0699     1.0101 C.3     
   6 N6             1.9245     1.7205    -1.3521 N.pl3   
   7 C7             2.9321     2.4832    -1.8863 C.ar    
   8 C8             3.1222     2.0115    -3.1959 C.ar    
   9 N9             2.2374     1.0042    -3.3899 N.2     
  10 C10            1.5375     0.8279    -2.3069 C.2     
  11 N11            3.6876     3.4833    -1.4438 N.ar    
  12 C12            4.6022     4.0268    -2.2187 C.ar    
  13 N13            4.8171     3.6180    -3.4560 N.ar    
  14 C14            4.1106     2.6246    -3.9850 C.ar    
  15 N15            4.3429     2.2031    -5.2825 N.pl3   
  16 O16            1.1291    -0.5464     2.4628 O.3     
  17 O17            3.5814     0.9325     0.5128 O.3     
  18 C18           -0.8442    -0.9578     0.7513 C.3     
  19 O19           -1.9373    -0.8914    -0.1668 O.3     
  20 P20           -3.3688    -1.5685     0.1237 P.3     
  21 O21           -3.8964    -1.0723     1.4144 O.2     
  22 O22           -4.3933    -1.1856    -1.0577 O.3     
  23 O23           -3.2018    -3.1684     0.1917 O.3     
  24 P24           -5.9981    -1.1742    -1.1865 P.3     
  25 N25           -6.4335    -0.6564    -2.7275 N.3     
  26 P26           -8.1070    -0.6299    -2.9045 P.3     
  27 O27           -8.4820    -0.1304    -4.3884 O.3     
  28 O28           -6.5210    -2.5399    -0.9589 O.2     
  29 O29           -6.6175    -0.1725    -0.0888 O.3     
  30 O30           -8.6472    -1.9912    -2.6909 O.2     
  31 O31           -8.7453     0.3766    -1.8221 O.3     
  32 H32            0.6138    -0.6185    -0.8129 H       
  33 H33            1.2903     2.8883     0.2844 H       
  34 H34            2.2465    -1.1023     0.8011 H       
  35 H35            2.2529     1.5738     1.9766 H       
  36 H36            0.7595     0.0888    -2.1853 H       
  37 H37            5.1991     4.8378    -1.8282 H       
  38 H38            5.0281     2.6340    -5.8171 H       
  39 H39            3.8206     1.4769    -5.6575 H       
  40 H40            1.8481    -0.6165     3.1056 H       
  41 H41            4.1606     0.4057     1.0804 H       
  42 H42           -0.5780    -2.0005     0.9244 H       
  43 H43           -1.1337    -0.4952     1.6949 H       
  44 H44           -2.8593    -3.5630    -0.6220 H       
  45 H45           -6.0340     0.2474    -2.9317 H       
  46 H46           -9.4325    -0.0906    -4.5615 H       
  47 H47           -6.3176     0.7425    -0.1777 H       
  48 H48           -8.4354     1.2891    -1.9028 H       
@<TRIPOS>BOND
   1    1    2 1
   2    1    3 1
   3    2   18 1
   4    2    4 1
   5    2   32 1
   6    3    6 1
   7    3    5 1
   8    3   33 1
   9    4   16 1
  10    4    5 1
  11    4   34 1
  12    5   17 1
  13    5   35 1
  14    6    7 1
  15    6   10 1
  16    7    8 ar
  17    7   11 ar
  18    8    9 1
  19    8   14 ar
  20    9   10 2
  21   10   36 1
  22   11   12 ar
  23   12   13 ar
  24   12   37 1
  25   13   14 ar
  26   14   15 1
  27   15   38 1
  28   15   39 1
  29   16   40 1
  30   17   41 1
  31   18   19 1
  32   18   42 1
  33   18   43 1
  34   19   20 1
  35   20   21 2
  36   20   22 1
  37   20   23 1
  38   22   24 1
  39   23   44 1
  40   24   25 1
  41   24   28 2
  42   24   29 1
  43   25   26 1
  44   25   45 1
  45   26   27 1
  46   26   30 2
  47   26   31 1
  48   27   46 1
  49   29   47 1
  50   31   48 1

#	End of record

