#	Name: ASD02570006
#	Creating user name:	WinNT
#	Creation time:	15. 06. 2019 20:25

#	Modifying user name:	WinNT
#	Modification time:	15. 06. 2019 20:25

#	Program:	/corina/corina34_cracker 3.40 0067  02.08.2006

@<TRIPOS>MOLECULE
ASD02570006
  60   62    0    0    0
SMALL
NO_CHARGES


@<TRIPOS>ATOM
   1 C1            -0.1579     1.5504    -0.2437 C.3     
   2 C2             0.1303     0.1155     0.2134 C.3     
   3 C3             0.8305    -0.6215    -0.9262 C.3     
   4 C4             2.0078     0.1740    -1.4282 C.ar    
   5 C5             2.1608     1.5181    -1.1623 C.ar    
   6 C6             1.1693     2.2999    -0.3403 C.3     
   7 C7             2.9616    -0.4962    -2.1873 C.ar    
   8 C8             4.0608     0.1668    -2.6821 C.ar    
   9 C9             4.2208     1.5305    -2.4192 C.ar    
  10 C10            3.2626     2.1981    -1.6570 C.ar    
  11 C11            0.9326     3.6617    -0.9964 C.3     
  12 C12            1.7340     2.5098     1.0661 C.3     
  13 C13            1.3184    -1.9815    -0.4230 C.3     
  14 C14           -0.1599    -0.8346    -2.0728 C.3     
  15 C15            5.3916     2.2559    -2.9423 C.2     
  16 C16            6.4088     2.8309    -1.9906 C.3     
  17 C17            5.5525     2.4047    -4.2684 C.2     
  18 C18            6.7986     2.9815    -4.7983 C.ar    
  19 C19            8.0195     2.7047    -4.1728 C.ar    
  20 C20            9.1754     3.2397    -4.6651 C.ar    
  21 C21            9.1392     4.0642    -5.7943 C.ar    
  22 C22            7.9193     4.3411    -6.4197 C.ar    
  23 C23            6.7635     3.8023    -5.9313 C.ar    
  24 C24           10.3879     4.6422    -6.3254 C.2     
  25 O25           10.3534     5.4366    -7.4133 O.3     
  26 O26           11.4478     4.4021    -5.7819 O.2     
  27 C27           11.6204     5.9703    -7.8804 C.3     
  28 C28           11.3825     6.8421    -9.1150 C.3     
  29 H29           -0.6425     1.5344    -1.2199 H       
  30 H30           -0.8062     2.0434     0.4807 H       
  31 H31            0.7762     0.1325     1.0912 H       
  32 H32           -0.8058    -0.3877     0.4556 H       
  33 H33            2.8378    -1.5497    -2.3904 H       
  34 H34            4.7959    -0.3630    -3.2697 H       
  35 H35            3.3801     3.2516    -1.4505 H       
  36 H36            0.5392     3.5168    -2.0026 H       
  37 H37            0.2155     4.2305    -0.4044 H       
  38 H38            1.8743     4.2080    -1.0496 H       
  39 H39            2.6717     3.0620     1.0024 H       
  40 H40            1.0193     3.0753     1.6640 H       
  41 H41            1.9135     1.5418     1.5338 H       
  42 H42            0.4670    -2.5678    -0.0774 H       
  43 H43            1.8189    -2.5107    -1.2338 H       
  44 H44            2.0169    -1.8348     0.4009 H       
  45 H45           -0.5179     0.1317    -2.4280 H       
  46 H46            0.3363    -1.3605    -2.8885 H       
  47 H47           -1.0037    -1.4269    -1.7187 H       
  48 H48            7.1917     2.0950    -1.8074 H       
  49 H49            6.8483     3.7279    -2.4270 H       
  50 H50            5.9222     3.0858    -1.0492 H       
  51 H51            4.7675     2.1010    -4.9450 H       
  52 H52            8.0475     2.0683    -3.3006 H       
  53 H53           10.1176     3.0264    -4.1822 H       
  54 H54            7.8918     4.9778    -7.2917 H       
  55 H55            5.8216     4.0162    -6.4143 H       
  56 H56           12.0737     6.5721    -7.0926 H       
  57 H57           12.2877     5.1482    -8.1391 H       
  58 H58           10.9292     6.2403    -9.9028 H       
  59 H59           10.7152     7.6642    -8.8563 H       
  60 H60           12.3336     7.2427    -9.4656 H       
@<TRIPOS>BOND
   1    1    2 1
   2    1    6 1
   3    1   29 1
   4    1   30 1
   5    2    3 1
   6    2   31 1
   7    2   32 1
   8    3    4 1
   9    3   13 1
  10    3   14 1
  11    4    5 ar
  12    4    7 ar
  13    5    6 1
  14    5   10 ar
  15    6   11 1
  16    6   12 1
  17    7    8 ar
  18    7   33 1
  19    8    9 ar
  20    8   34 1
  21    9   10 ar
  22    9   15 1
  23   10   35 1
  24   11   36 1
  25   11   37 1
  26   11   38 1
  27   12   39 1
  28   12   40 1
  29   12   41 1
  30   13   42 1
  31   13   43 1
  32   13   44 1
  33   14   45 1
  34   14   46 1
  35   14   47 1
  36   15   16 1
  37   15   17 2
  38   16   48 1
  39   16   49 1
  40   16   50 1
  41   17   18 1
  42   17   51 1
  43   18   19 ar
  44   18   23 ar
  45   19   20 ar
  46   19   52 1
  47   20   21 ar
  48   20   53 1
  49   21   22 ar
  50   21   24 1
  51   22   23 ar
  52   22   54 1
  53   23   55 1
  54   24   25 1
  55   24   26 2
  56   25   27 1
  57   27   28 1
  58   27   56 1
  59   27   57 1
  60   28   58 1
  61   28   59 1
  62   28   60 1

#	End of record

