#	Name: ASD00069208
#	Creating user name:	WinNT
#	Creation time:	15. 06. 2019 18:29

#	Modifying user name:	WinNT
#	Modification time:	15. 06. 2019 18:29

#	Program:	/corina/corina34_cracker 3.40 0067  02.08.2006

@<TRIPOS>MOLECULE
ASD00069208
  83   88    0    0    0
SMALL
NO_CHARGES


@<TRIPOS>ATOM
   1 N1            -0.0406     1.4633    -0.1596 N.3     
   2 C2            -0.0258    -0.0063    -0.1954 C.3     
   3 C3             0.7578    -0.4736    -1.4249 C.3     
   4 O4             2.0757     0.0803    -1.3828 O.3     
   5 C5             2.0986     1.5098    -1.3478 C.3     
   6 C6             1.3286     1.9972    -0.1176 C.3     
   7 C7             0.8440    -1.9781    -1.4247 C.2     
   8 O8             1.9204    -2.5238    -1.3044 O.2     
   9 N9            -0.2750    -2.7172    -1.5582 N.am    
  10 C10           -2.0908     1.5046     2.7709 C.ar    
  11 N11           -1.3753     1.0710     1.7435 N.ar    
  12 C12           -0.7874     1.9266     0.9120 C.ar    
  13 C13           -0.9319     3.2951     1.1329 C.ar    
  14 C14           -1.6916     3.7133     2.2233 C.ar    
  15 N15           -2.2509     2.7957     3.0133 N.ar    
  16 C16           -1.7406     7.3073     2.3276 C.2     
  17 N17           -1.3690     6.1700     1.7854 N.2     
  18 C18           -1.8760     5.1577     2.5013 C.2     
  19 C19           -2.5998     5.6978     3.5415 C.2     
  20 N20           -2.5103     7.0409     3.4260 N.pl3   
  21 C21           -1.3816     8.6505     1.8362 C.2     
  22 N22           -0.6082     8.7827     0.7403 N.am    
  23 O23           -1.7834     9.6390     2.4198 O.2     
  24 C24           -0.3654    10.0532     0.2039 C.ar    
  25 C25            0.8623    10.3366    -0.3957 C.ar    
  26 C26            1.0961    11.5969    -0.9249 C.ar    
  27 C27            0.1143    12.5680    -0.8574 C.ar    
  28 C28           -1.1019    12.2873    -0.2630 C.ar    
  29 C29           -1.3462    11.0316     0.2618 C.ar    
  30 N30            1.8543     9.3526    -0.4623 N.3     
  31 C31            2.3454     9.0082     0.8793 C.3     
  32 C32            3.3690     7.8756     0.7697 C.3     
  33 N33            4.4749     8.3007    -0.0998 N.3     
  34 C34            3.9838     8.6451    -1.4413 C.3     
  35 C35            2.9602     9.7777    -1.3318 C.3     
  36 N36           -2.6917     0.5824     3.6099 N.pl3   
  37 C37           -3.4872     1.0402     4.7518 C.3     
  38 C38           -0.1912    -4.1798    -1.5581 C.3     
  39 C39           -1.5283    -4.7672    -1.1020 C.3     
  40 C40           -1.4408    -6.2947    -1.1019 C.3     
  41 C41           -1.1227    -6.7875    -2.5150 C.3     
  42 C42            0.2144    -6.2001    -2.9710 C.3     
  43 C43            0.1269    -4.6726    -2.9712 C.3     
  44 H44            0.4519    -0.3876     0.7071 H       
  45 H45           -1.0484    -0.3793    -0.2522 H       
  46 H46            0.2505    -0.1375    -2.3292 H       
  47 H47            3.1306     1.8561    -1.2920 H       
  48 H48            1.6302     1.9035    -2.2499 H       
  49 H49            1.2946     3.0867    -0.1176 H       
  50 H50            1.8278     1.6480     0.7862 H       
  51 H51           -1.1359    -2.2808    -1.6544 H       
  52 H52           -0.4660     4.0139     0.4751 H       
  53 H53           -3.1366     5.1520     4.3033 H       
  54 H54           -2.9171     7.6960     4.0144 H       
  55 H55           -0.2199     7.9978     0.3232 H       
  56 H56            2.0453    11.8199    -1.3893 H       
  57 H57            0.2981    13.5490    -1.2701 H       
  58 H58           -1.8652    13.0496    -0.2127 H       
  59 H59           -2.2992    10.8143     0.7212 H       
  60 H60            2.8167     9.8819     1.3294 H       
  61 H61            1.5101     8.6846     1.5003 H       
  62 H62            3.7561     7.6381     1.7606 H       
  63 H63            2.8908     6.9931     0.3447 H       
  64 H64            4.9805     9.0721     0.3093 H       
  65 H65            4.8191     8.9686    -2.0624 H       
  66 H66            3.5126     7.7713    -1.8915 H       
  67 H67            2.5731    10.0151    -2.3227 H       
  68 H68            3.4384    10.6601    -0.9067 H       
  69 H69           -2.5861    -0.3671     3.4420 H       
  70 H70           -4.3164     1.6513     4.3952 H       
  71 H71           -3.8775     0.1777     5.2919 H       
  72 H72           -2.8596     1.6324     5.4177 H       
  73 H73            0.5971    -4.4985    -0.8761 H       
  74 H74           -1.7549    -4.4162    -0.0953 H       
  75 H75           -2.3167    -4.4486    -1.7840 H       
  76 H76           -0.6525    -6.6134    -0.4199 H       
  77 H77           -2.3934    -6.7132    -0.7770 H       
  78 H78           -1.0604    -7.8757    -2.5149 H       
  79 H79           -1.9111    -6.4688    -3.1969 H       
  80 H80            1.0027    -6.5188    -2.2891 H       
  81 H81            0.4410    -6.5511    -3.9778 H       
  82 H82           -0.6615    -4.3539    -3.6532 H       
  83 H83            1.0794    -4.2541    -3.2961 H       
@<TRIPOS>BOND
   1    1    2 1
   2    1    6 1
   3    1   12 1
   4    2    3 1
   5    2   44 1
   6    2   45 1
   7    3    4 1
   8    3    7 1
   9    3   46 1
  10    4    5 1
  11    5    6 1
  12    5   47 1
  13    5   48 1
  14    6   49 1
  15    6   50 1
  16    7    8 2
  17    7    9 am
  18    9   38 1
  19    9   51 1
  20   10   11 ar
  21   10   15 ar
  22   10   36 1
  23   11   12 ar
  24   12   13 ar
  25   13   14 ar
  26   13   52 1
  27   14   15 ar
  28   14   18 1
  29   16   17 2
  30   16   20 1
  31   16   21 1
  32   17   18 1
  33   18   19 2
  34   19   20 1
  35   19   53 1
  36   20   54 1
  37   21   22 am
  38   21   23 2
  39   22   24 1
  40   22   55 1
  41   24   25 ar
  42   24   29 ar
  43   25   26 ar
  44   25   30 1
  45   26   27 ar
  46   26   56 1
  47   27   28 ar
  48   27   57 1
  49   28   29 ar
  50   28   58 1
  51   29   59 1
  52   30   31 1
  53   30   35 1
  54   31   32 1
  55   31   60 1
  56   31   61 1
  57   32   33 1
  58   32   62 1
  59   32   63 1
  60   33   34 1
  61   33   64 1
  62   34   35 1
  63   34   65 1
  64   34   66 1
  65   35   67 1
  66   35   68 1
  67   36   37 1
  68   36   69 1
  69   37   70 1
  70   37   71 1
  71   37   72 1
  72   38   39 1
  73   38   43 1
  74   38   73 1
  75   39   40 1
  76   39   74 1
  77   39   75 1
  78   40   41 1
  79   40   76 1
  80   40   77 1
  81   41   42 1
  82   41   78 1
  83   41   79 1
  84   42   43 1
  85   42   80 1
  86   42   81 1
  87   43   82 1
  88   43   83 1

#	End of record

