#	Name: ASD04882347
#	Creating user name:	WinNT
#	Creation time:	15. 06. 2019 20:54

#	Modifying user name:	WinNT
#	Modification time:	15. 06. 2019 20:54

#	Program:	/corina/corina34_cracker 3.40 0067  02.08.2006

@<TRIPOS>MOLECULE
ASD04882347
  85   89    0    0    0
SMALL
NO_CHARGES


@<TRIPOS>ATOM
   1 N1            -0.0169     1.3971     0.0097 N.am    
   2 C2             0.1087     0.0021    -0.0335 C.ar    
   3 C3            -1.0292    -0.8054     0.0466 C.ar    
   4 C4            -0.9061    -2.1895     0.0039 C.ar    
   5 C5             0.3369    -2.7699    -0.1175 C.ar    
   6 C6             1.4790    -1.9682    -0.1978 C.ar    
   7 C7             1.3574    -0.5762    -0.1612 C.ar    
   8 N8            -2.2879    -0.2227     0.1700 N.3     
   9 C9            -3.1543    -0.5975    -0.9563 C.3     
  10 C10           -2.9109    -0.5812     1.4518 C.3     
  11 C11           -4.2540     0.1407     1.5827 C.3     
  12 N12           -5.1205    -0.2340     0.4564 N.3     
  13 C13           -4.4975     0.1244    -0.8254 C.3     
  14 C14            2.8105    -2.5902    -0.3268 C.2     
  15 O15            3.8036    -1.8920    -0.3966 O.2     
  16 C16            0.9217     2.1763    -0.5633 C.2     
  17 C17            0.7456     3.6392    -0.5955 C.2     
  18 O18            1.9139     1.6722    -1.0538 O.2     
  19 N19            2.9262    -3.9324    -0.3675 N.am    
  20 C20           -6.3830     0.3504     0.5801 C.ar    
  21 C21           -7.5155    -0.4497     0.6600 C.ar    
  22 C22           -6.5084     1.7332     0.6293 C.ar    
  23 C23           -7.7581     2.3077     0.7516 C.ar    
  24 C24           -8.8842     1.5081     0.8256 C.ar    
  25 C25           -8.7626     0.1315     0.7823 C.ar    
  26 C26           -7.3839    -1.9502     0.6129 C.3     
  27 C27            0.1356     4.4074    -1.5572 C.2     
  28 C28            1.1742     4.6366     0.3973 C.2     
  29 N29            0.7916     5.7836    -0.0805 N.2     
  30 O30            0.2268     5.6726    -1.1409 O.3     
  31 C31            4.2484    -4.5500    -0.4957 C.3     
  32 C32            4.1001    -6.0727    -0.5177 C.3     
  33 C33            5.4810    -6.7178    -0.6515 C.3     
  34 N34            5.3389    -8.1757    -0.6726 N.am    
  35 C35            5.1545    -8.9722    -1.8914 C.3     
  36 C36            4.6258   -10.3424    -1.4123 C.3     
  37 C37            5.1766   -10.4056     0.0312 C.3     
  38 C38            5.3665    -8.9563     0.4214 C.2     
  39 O39            5.5146    -8.5562     1.5567 O.2     
  40 C40            1.9014     4.3827     1.6926 C.3     
  41 C41           -0.5084     3.9191    -2.8291 C.3     
  42 C42           -1.9863     4.3147    -2.8370 C.3     
  43 C43            0.1951     4.5508    -4.0321 C.3     
  44 H44           -0.7814     1.8018     0.4486 H       
  45 H45           -1.7872    -2.8109     0.0664 H       
  46 H46            0.4293    -3.8454    -0.1505 H       
  47 H47            2.2381     0.0458    -0.2230 H       
  48 H48           -2.6771    -0.3106    -1.8934 H       
  49 H49           -3.3182    -1.6751    -0.9463 H       
  50 H50           -3.0719    -1.6586     1.4892 H       
  51 H51           -2.2561    -0.2824     2.2704 H       
  52 H52           -4.7313    -0.1461     2.5198 H       
  53 H53           -4.0902     1.2183     1.5727 H       
  54 H54           -4.3365     1.2018    -0.8628 H       
  55 H55           -5.1523    -0.1744    -1.6440 H       
  56 H56            2.1340    -4.4894    -0.3119 H       
  57 H57           -5.6294     2.3581     0.5723 H       
  58 H58           -7.8562     3.3825     0.7898 H       
  59 H59           -9.8604     1.9600     0.9219 H       
  60 H60           -9.6439    -0.4899     0.8402 H       
  61 H61           -7.2628    -2.3363     1.6250 H       
  62 H62           -8.2801    -2.3796     0.1650 H       
  63 H63           -6.5137    -2.2200     0.0146 H       
  64 H64            4.7167    -4.2172    -1.4220 H       
  65 H65            4.8696    -4.2577     0.3509 H       
  66 H66            3.6318    -6.4055     0.4086 H       
  67 H67            3.4789    -6.3650    -1.3643 H       
  68 H68            5.9492    -6.3849    -1.5779 H       
  69 H69            6.1022    -6.4254     0.1951 H       
  70 H70            4.4262    -8.4952    -2.5472 H       
  71 H71            6.1058    -9.0951    -2.4092 H       
  72 H72            3.5359   -10.3626    -1.4151 H       
  73 H73            5.0311   -11.1512    -2.0202 H       
  74 H74            4.4586   -10.8907     0.6926 H       
  75 H75            6.1315   -10.9307     0.0525 H       
  76 H76            2.9768     4.4188     1.5187 H       
  77 H77            1.6252     5.1461     2.4200 H       
  78 H78            1.6281     3.3997     2.0761 H       
  79 H79           -0.4224     2.8340    -2.8866 H       
  80 H80           -2.0723     5.3998    -2.7795 H       
  81 H81           -2.4521     3.9615    -3.7570 H       
  82 H82           -2.4874     3.8646    -1.9800 H       
  83 H83            0.1091     5.6359    -3.9746 H       
  84 H84            1.2480     4.2690    -4.0265 H       
  85 H85           -0.2707     4.1976    -4.9521 H       
@<TRIPOS>BOND
   1    1    2 1
   2    1   16 am
   3    1   44 1
   4    2    3 ar
   5    2    7 ar
   6    3    4 ar
   7    3    8 1
   8    4    5 ar
   9    4   45 1
  10    5    6 ar
  11    5   46 1
  12    6    7 ar
  13    6   14 1
  14    7   47 1
  15    8    9 1
  16    8   10 1
  17    9   13 1
  18    9   48 1
  19    9   49 1
  20   10   11 1
  21   10   50 1
  22   10   51 1
  23   11   12 1
  24   11   52 1
  25   11   53 1
  26   12   13 1
  27   12   20 1
  28   13   54 1
  29   13   55 1
  30   14   15 2
  31   14   19 am
  32   16   18 2
  33   16   17 1
  34   17   27 2
  35   17   28 1
  36   19   31 1
  37   19   56 1
  38   20   21 ar
  39   20   22 ar
  40   21   26 1
  41   21   25 ar
  42   22   23 ar
  43   22   57 1
  44   23   24 ar
  45   23   58 1
  46   24   25 ar
  47   24   59 1
  48   25   60 1
  49   26   61 1
  50   26   62 1
  51   26   63 1
  52   27   41 1
  53   27   30 1
  54   28   29 2
  55   28   40 1
  56   29   30 1
  57   31   32 1
  58   31   64 1
  59   31   65 1
  60   32   33 1
  61   32   66 1
  62   32   67 1
  63   33   34 1
  64   33   68 1
  65   33   69 1
  66   34   35 1
  67   34   38 am
  68   35   36 1
  69   35   70 1
  70   35   71 1
  71   36   37 1
  72   36   72 1
  73   36   73 1
  74   37   38 1
  75   37   74 1
  76   37   75 1
  77   38   39 2
  78   40   76 1
  79   40   77 1
  80   40   78 1
  81   41   42 1
  82   41   43 1
  83   41   79 1
  84   42   80 1
  85   42   81 1
  86   42   82 1
  87   43   83 1
  88   43   84 1
  89   43   85 1

#	End of record

