#	Name: ASD00990116
#	Creating user name:	WinNT
#	Creation time:	15. 06. 2019 18:54

#	Modifying user name:	WinNT
#	Modification time:	15. 06. 2019 18:54

#	Program:	/corina/corina34_cracker 3.40 0067  02.08.2006

@<TRIPOS>MOLECULE
ASD00990116
  54   57    0    0    0
SMALL
NO_CHARGES


@<TRIPOS>ATOM
   1 C1            -0.1356     2.2429     1.6431 C.ar    
   2 C2            -0.2826     0.8698     1.6648 C.ar    
   3 C3             0.8102     0.0531     1.4196 C.ar    
   4 C4             2.0543     0.6237     1.1519 C.ar    
   5 C5             2.1956     2.0024     1.1322 C.ar    
   6 C6             1.1003     2.8092     1.3772 C.ar    
   7 N7             2.9419    -0.4326     0.9490 N.am    
   8 C8             4.3689    -0.3176     0.6383 C.3     
   9 C9             5.1614    -0.2900     1.9198 C.2     
  10 N10            6.5047    -0.1880     1.8793 N.am    
  11 C11            7.2751    -0.1613     3.1251 C.3     
  12 O12            4.5904    -0.3597     2.9875 O.2     
  13 C13            7.1944    -0.1039     0.5896 C.3     
  14 C14            7.5906    -1.5720     3.5511 C.2     
  15 N15            8.7570    -2.2222     3.2911 N.pl3   
  16 C16            8.6558    -3.4841     3.8435 C.ar    
  17 C17            7.3840    -3.5463     4.4368 C.ar    
  18 N18            6.7894    -2.3436     4.2258 N.2     
  19 C19            9.5042    -4.5810     3.9056 C.ar    
  20 C20            9.0950    -5.7294     4.5505 C.ar    
  21 C21            7.8375    -5.7959     5.1391 C.ar    
  22 C22            6.9838    -4.7172     5.0867 C.ar    
  23 O23            0.9665    -1.2929     1.3743 O.3     
  24 C24            2.2472    -1.5787     1.0917 C.2     
  25 O25            2.7088    -2.6982     0.9807 O.2     
  26 Cl26           1.2741     4.5363     1.3526 Cl      
  27 Cl27           7.3398    -7.2502     5.9459 Cl      
  28 Cl28          10.1568    -7.1006     4.6269 Cl      
  29 C29            9.9069    -1.6840     2.5602 C.3     
  30 C30           10.8846    -1.0436     3.5476 C.3     
  31 O31           10.2286     0.0144     4.2492 O.3     
  32 C32           11.3639    -2.0982     4.5471 C.3     
  33 C33           12.0855    -0.4815     2.7841 C.3     
  34 H34           -0.9889     2.8780     1.8299 H       
  35 H35           -1.2481     0.4328     1.8729 H       
  36 H36            3.1587     2.4451     0.9248 H       
  37 H37            4.6799    -1.1719     0.0370 H       
  38 H38            4.5465     0.6025     0.0814 H       
  39 H39            8.2039     0.3866     2.9663 H       
  40 H40            6.6913     0.3311     3.9029 H       
  41 H41            7.2079     0.9323     0.2517 H       
  42 H42            8.2175    -0.4633     0.7006 H       
  43 H43            6.6711    -0.7182    -0.1431 H       
  44 H44           10.4823    -4.5354     3.4498 H       
  45 H45            6.0081    -4.7756     5.5460 H       
  46 H46           10.4073    -2.4910     2.0250 H       
  47 H47            9.5655    -0.9327     1.8480 H       
  48 H48            9.8979     0.7201     3.6768 H       
  49 H49           11.8643    -2.9052     4.0120 H       
  50 H50           12.0604    -1.6420     5.2506 H       
  51 H51           10.5083    -2.4986     5.0910 H       
  52 H52           11.7441     0.2697     2.0720 H       
  53 H53           12.7821    -0.0254     3.4876 H       
  54 H54           12.5860    -1.2886     2.2490 H       
@<TRIPOS>BOND
   1    1    2 ar
   2    1    6 ar
   3    1   34 1
   4    2    3 ar
   5    2   35 1
   6    3    4 ar
   7    3   23 1
   8    4    5 ar
   9    4    7 1
  10    5    6 ar
  11    5   36 1
  12    6   26 1
  13    7    8 1
  14    7   24 am
  15    8    9 1
  16    8   37 1
  17    8   38 1
  18    9   10 am
  19    9   12 2
  20   10   11 1
  21   10   13 1
  22   11   14 1
  23   11   39 1
  24   11   40 1
  25   13   41 1
  26   13   42 1
  27   13   43 1
  28   14   15 1
  29   14   18 2
  30   15   16 1
  31   15   29 1
  32   16   17 ar
  33   16   19 ar
  34   17   18 1
  35   17   22 ar
  36   19   20 ar
  37   19   44 1
  38   20   21 ar
  39   20   28 1
  40   21   22 ar
  41   21   27 1
  42   22   45 1
  43   23   24 1
  44   24   25 2
  45   29   30 1
  46   29   46 1
  47   29   47 1
  48   30   31 1
  49   30   32 1
  50   30   33 1
  51   31   48 1
  52   32   49 1
  53   32   50 1
  54   32   51 1
  55   33   52 1
  56   33   53 1
  57   33   54 1

#	End of record

