#	Name: ASD07301099
#	Creating user name:	WinNT
#	Creation time:	15. 06. 2019 21:10

#	Modifying user name:	WinNT
#	Modification time:	15. 06. 2019 21:10

#	Program:	/corina/corina34_cracker 3.40 0067  02.08.2006

@<TRIPOS>MOLECULE
ASD07301099
  17   17    0    0    0
SMALL
NO_CHARGES


@<TRIPOS>ATOM
   1 O1            -0.0161     1.3335     0.0094 O.3     
   2 C2             0.0021    -0.0041     0.0020 C.2     
   3 N3             1.2348    -0.5293    -0.0126 N.am    
   4 C4             2.2183     0.5645    -0.0161 C.3     
   5 C5             1.3508     1.8380    -0.0010 C.3     
   6 O6            -1.0070    -0.6809     0.0087 O.2     
   7 C7             1.6043     2.6745    -1.2567 C.3     
   8 C8             1.6283     2.6610     1.2586 C.3     
   9 H9             1.4444    -1.4764    -0.0197 H       
  10 H10            2.8457     0.5181     0.8740 H       
  11 H11            2.8286     0.5277    -0.9184 H       
  12 H12            0.9328     3.5332    -1.2629 H       
  13 H13            2.6376     3.0213    -1.2597 H       
  14 H14            1.4229     2.0651    -2.1420 H       
  15 H15            1.4638     2.0421     2.1406 H       
  16 H16            2.6615     3.0079     1.2456 H       
  17 H17            0.9572     3.5195     1.2868 H       
@<TRIPOS>BOND
   1    1    2 1
   2    1    5 1
   3    2    3 am
   4    2    6 2
   5    3    4 1
   6    3    9 1
   7    4    5 1
   8    4   10 1
   9    4   11 1
  10    5    7 1
  11    5    8 1
  12    7   12 1
  13    7   13 1
  14    7   14 1
  15    8   15 1
  16    8   16 1
  17    8   17 1

#	End of record

