#	Name: ASD02038854
#	Creating user name:	WinNT
#	Creation time:	15. 06. 2019 20:17

#	Modifying user name:	WinNT
#	Modification time:	15. 06. 2019 20:17

#	Program:	/corina/corina34_cracker 3.40 0067  02.08.2006

@<TRIPOS>MOLECULE
ASD02038854
  53   56    0    0    0
SMALL
NO_CHARGES


@<TRIPOS>ATOM
   1 C1            -1.2785    -0.8644     0.4612 C.2     
   2 C2            -0.0670    -0.0425     0.2961 C.2     
   3 N3             1.1350    -0.6351     0.1532 N.am    
   4 C4             1.2505    -2.0919     0.2569 C.3     
   5 C5             1.2301    -2.6970    -1.1231 C.ar    
   6 C6             2.4190    -3.0139    -1.7549 C.ar    
   7 C7             2.4089    -3.5695    -3.0213 C.ar    
   8 C8             1.2085    -3.8115    -3.6626 C.ar    
   9 C9             0.0063    -3.4936    -3.0286 C.ar    
  10 C10            0.0248    -2.9387    -1.7510 C.ar    
  11 C11            2.3261     0.1775    -0.1061 C.3     
  12 C12            2.0993     1.0156    -1.3607 C.3     
  13 C13            3.4155     1.6599    -1.8038 C.3     
  14 S14            3.9821     2.7932    -0.5008 S.3     
  15 C15            3.9751     1.7241     0.9689 C.3     
  16 C16            2.5959     1.0726     1.0998 C.3     
  17 O17           -0.1516     1.1708     0.2889 O.2     
  18 N18           -1.3291    -2.2205     0.4998 N.2     
  19 C19           -2.5670    -2.5912     0.6572 C.2     
  20 N20           -3.3544    -1.4863     0.7252 N.pl3   
  21 C21           -2.5531    -0.4013     0.6090 C.2     
  22 C22           -4.8089    -1.4714     0.8993 C.3     
  23 C23           -1.2860    -3.7499    -3.7107 C.ar    
  24 C24           -1.4867    -3.3070    -5.0167 C.ar    
  25 C25           -2.3006    -4.4393    -3.0494 C.ar    
  26 C26           -3.5009    -4.6754    -3.6875 C.ar    
  27 C27           -3.6982    -4.2283    -4.9839 C.ar    
  28 C28           -2.6902    -3.5475    -5.6472 C.ar    
  29 F29           -4.8750    -4.4616    -5.6051 F       
  30 F30            1.1988    -4.3538    -4.8999 F       
  31 H31            2.1872    -2.3477     0.7520 H       
  32 H32            0.4144    -2.4822     0.8372 H       
  33 H33            3.3590    -2.8264    -1.2573 H       
  34 H34            3.3403    -3.8144    -3.5102 H       
  35 H35           -0.9024    -2.6908    -1.2557 H       
  36 H36            3.1815    -0.4795    -0.2631 H       
  37 H37            1.7222     0.3768    -2.1594 H       
  38 H38            1.3683     1.7956    -1.1476 H       
  39 H39            4.1651     0.8852    -1.9653 H       
  40 H40            3.2571     2.2158    -2.7279 H       
  41 H41            4.7356     0.9506     0.8614 H       
  42 H42            4.1824     2.3219     1.8564 H       
  43 H43            1.8325     1.8489     1.1523 H       
  44 H44            2.5636     0.4733     2.0097 H       
  45 H45           -2.9123    -3.6124     0.7228 H       
  46 H46           -2.8644     0.6328     0.6232 H       
  47 H47           -5.0473    -1.4428     1.9626 H       
  48 H48           -5.2245    -0.5905     0.4100 H       
  49 H49           -5.2372    -2.3699     0.4550 H       
  50 H50           -0.7016    -2.7759    -5.5343 H       
  51 H51           -2.1475    -4.7885    -2.0389 H       
  52 H52           -4.2876    -5.2099    -3.1759 H       
  53 H53           -2.8482    -3.2006    -6.6577 H       
@<TRIPOS>BOND
   1    1    2 1
   2    1   18 1
   3    1   21 2
   4    2    3 am
   5    2   17 2
   6    3    4 1
   7    3   11 1
   8    4    5 1
   9    4   31 1
  10    4   32 1
  11    5    6 ar
  12    5   10 ar
  13    6    7 ar
  14    6   33 1
  15    7    8 ar
  16    7   34 1
  17    8    9 ar
  18    8   30 1
  19    9   10 ar
  20    9   23 1
  21   10   35 1
  22   11   12 1
  23   11   16 1
  24   11   36 1
  25   12   13 1
  26   12   37 1
  27   12   38 1
  28   13   14 1
  29   13   39 1
  30   13   40 1
  31   14   15 1
  32   15   16 1
  33   15   41 1
  34   15   42 1
  35   16   43 1
  36   16   44 1
  37   18   19 2
  38   19   20 1
  39   19   45 1
  40   20   21 1
  41   20   22 1
  42   21   46 1
  43   22   47 1
  44   22   48 1
  45   22   49 1
  46   23   24 ar
  47   23   25 ar
  48   24   28 ar
  49   24   50 1
  50   25   26 ar
  51   25   51 1
  52   26   27 ar
  53   26   52 1
  54   27   28 ar
  55   27   29 1
  56   28   53 1

#	End of record

