#	Name: ASD07931592
#	Creating user name:	WinNT
#	Creation time:	15. 06. 2019 21:13

#	Modifying user name:	WinNT
#	Modification time:	15. 06. 2019 21:13

#	Program:	/corina/corina34_cracker 3.40 0067  02.08.2006

@<TRIPOS>MOLECULE
ASD07931592
  49   53    0    0    0
SMALL
NO_CHARGES


@<TRIPOS>ATOM
   1 N1            -0.0161     1.3386     0.0094 N.pl3   
   2 C2             0.0021    -0.0041     0.0020 C.2     
   3 C3             1.1793    -0.7101    -0.0125 C.2     
   4 C4             2.4649     0.0245    -0.0208 C.2     
   5 C5             2.3994     1.4984    -0.0142 C.ar    
   6 C6             3.5528     2.2766    -0.0218 C.ar    
   7 C7             3.4490     3.6522    -0.0158 C.ar    
   8 C8             2.2021     4.2571    -0.0020 C.ar    
   9 C9             1.0517     3.4965     0.0061 C.ar    
  10 C10            1.1343     2.1082     0.0025 C.ar    
  11 N11            2.8980    -2.1587    -0.0347 N.am    
  12 N12            3.4184    -0.8621    -0.0335 N.2     
  13 C13            1.5480    -2.1223    -0.0223 C.2     
  14 O14            0.7891    -3.0779    -0.0198 O.2     
  15 C15           -1.3130     2.0200     0.0191 C.3     
  16 N16           -3.7532     1.9260     3.5271 N.3     
  17 C17           -3.5227     3.2448     2.9237 C.3     
  18 C18           -3.0500     3.0706     1.4787 C.3     
  19 C19           -1.7577     2.2494     1.4650 C.3     
  20 C20           -2.0125     0.9000     2.1422 C.3     
  21 C21           -2.5153     1.1371     3.5680 C.3     
  22 C22            3.6668    -3.3295    -0.0475 C.ar    
  23 C23            4.6177    -3.5284    -1.0432 C.ar    
  24 C24            5.3744    -4.6857    -1.0519 C.ar    
  25 C25            5.1859    -5.6437    -0.0723 C.ar    
  26 C26            4.2411    -5.4482     0.9179 C.ar    
  27 C27            3.4857    -4.2915     0.9366 C.ar    
  28 F28            4.8013    -2.5927    -2.0003 F       
  29 H29           -0.9340    -0.5427     0.0080 H       
  30 H30            4.5248     1.8059    -0.0319 H       
  31 H31            4.3420     4.2595    -0.0217 H       
  32 H32            2.1307     5.3347     0.0030 H       
  33 H33            0.0858     3.9794     0.0176 H       
  34 H34           -1.2230     2.9797    -0.4899 H       
  35 H35           -2.0510     1.4040    -0.4946 H       
  36 H36           -4.1558     2.0150     4.4479 H       
  37 H37           -4.4504     3.8170     2.9359 H       
  38 H38           -2.7606     3.7767     3.4935 H       
  39 H39           -3.8174     2.5510     0.9049 H       
  40 H40           -2.8640     4.0492     1.0361 H       
  41 H41           -0.9785     2.7875     2.0048 H       
  42 H42           -2.7636     0.3462     1.5789 H       
  43 H43           -1.0854     0.3278     2.1737 H       
  44 H44           -1.7580     1.6788     4.1347 H       
  45 H45           -2.7113     0.1784     4.0482 H       
  46 H46            6.1127    -4.8418    -1.8245 H       
  47 H47            5.7781    -6.5468    -0.0811 H       
  48 H48            4.0965    -6.1989     1.6807 H       
  49 H49            2.7516    -4.1379     1.7138 H       
@<TRIPOS>BOND
   1    1    2 1
   2    1   10 1
   3    1   15 1
   4    2    3 2
   5    2   29 1
   6    3    4 1
   7    3   13 1
   8    4    5 1
   9    4   12 2
  10    5    6 ar
  11    5   10 ar
  12    6    7 ar
  13    6   30 1
  14    7    8 ar
  15    7   31 1
  16    8    9 ar
  17    8   32 1
  18    9   10 ar
  19    9   33 1
  20   11   12 1
  21   11   13 am
  22   11   22 1
  23   13   14 2
  24   15   19 1
  25   15   34 1
  26   15   35 1
  27   16   17 1
  28   16   21 1
  29   16   36 1
  30   17   18 1
  31   17   37 1
  32   17   38 1
  33   18   19 1
  34   18   39 1
  35   18   40 1
  36   19   20 1
  37   19   41 1
  38   20   21 1
  39   20   42 1
  40   20   43 1
  41   21   44 1
  42   21   45 1
  43   22   23 ar
  44   22   27 ar
  45   23   24 ar
  46   23   28 1
  47   24   25 ar
  48   24   46 1
  49   25   26 ar
  50   25   47 1
  51   26   27 ar
  52   26   48 1
  53   27   49 1

#	End of record

