#	Name: ASD08070182
#	Creating user name:	WinNT
#	Creation time:	15. 06. 2019 21:14

#	Modifying user name:	WinNT
#	Modification time:	15. 06. 2019 21:14

#	Program:	/corina/corina34_cracker 3.40 0067  02.08.2006

@<TRIPOS>MOLECULE
ASD08070182
  38   39    0    0    0
SMALL
NO_CHARGES


@<TRIPOS>ATOM
   1 N1            -0.0159     1.3180     0.0093 N.ar    
   2 C2             0.0021    -0.0041     0.0020 C.ar    
   3 C3             1.2042    -0.6980    -0.0132 C.ar    
   4 C4             2.4009     0.0217    -0.0207 C.ar    
   5 C5             2.3328     1.4187    -0.0126 C.ar    
   6 C6             1.0942     2.0316     0.0025 C.ar    
   7 C7             3.7079    -0.6760    -0.0365 C.2     
   8 N8             4.8520     0.0363    -0.0436 N.am    
   9 O9             3.7483    -1.8905    -0.0430 O.2     
  10 C10            6.5216    -0.9973    -1.5015 C.3     
  11 C11            6.1443    -0.6535    -0.0592 C.3     
  12 C12            7.3144     1.5433    -0.2768 C.3     
  13 C13            7.2155     0.2566     0.5451 C.3     
  14 C14            6.6204     0.2894    -2.3234 C.3     
  15 C15            7.6916     1.1995    -1.7191 C.3     
  16 C16            6.8383     0.6004     1.9874 C.3     
  17 O17           -1.1683    -0.6905     0.0100 O.3     
  18 C18           -2.3720     0.0795     0.0260 C.3     
  19 Cl19           0.9973     3.7648     0.0128 Cl      
  20 H20            1.2138    -1.7780    -0.0187 H       
  21 H21            3.2362     2.0106    -0.0177 H       
  22 H22            4.8197     1.0058    -0.0384 H       
  23 H23            7.4831    -1.5106    -1.5131 H       
  24 H24            5.7584    -1.6457    -1.9320 H       
  25 H25            6.0739    -1.5702     0.5263 H       
  26 H26            6.3528     2.0566    -0.2652 H       
  27 H27            8.0775     2.1917     0.1537 H       
  28 H28            8.1771    -0.2567     0.5335 H       
  29 H29            6.8891     0.0445    -3.3509 H       
  30 H30            5.6589     0.8027    -2.3118 H       
  31 H31            7.7620     2.1162    -2.3047 H       
  32 H32            8.6531     0.6862    -1.7307 H       
  33 H33            5.8768     1.1136     1.9990 H       
  34 H34            6.7679    -0.3163     2.5729 H       
  35 H35            7.6015     1.2487     2.4179 H       
  36 H36           -3.2318    -0.5903     0.0310 H       
  37 H37           -2.3923     0.7034     0.9196 H       
  38 H38           -2.4099     0.7129    -0.8602 H       
@<TRIPOS>BOND
   1    1    2 ar
   2    1    6 ar
   3    2    3 ar
   4    2   17 1
   5    3    4 ar
   6    3   20 1
   7    4    5 ar
   8    4    7 1
   9    5    6 ar
  10    5   21 1
  11    6   19 1
  12    7    8 am
  13    7    9 2
  14    8   11 1
  15    8   22 1
  16   10   11 1
  17   10   14 1
  18   10   23 1
  19   10   24 1
  20   11   13 1
  21   11   25 1
  22   12   13 1
  23   12   15 1
  24   12   26 1
  25   12   27 1
  26   13   16 1
  27   13   28 1
  28   14   15 1
  29   14   29 1
  30   14   30 1
  31   15   31 1
  32   15   32 1
  33   16   33 1
  34   16   34 1
  35   16   35 1
  36   17   18 1
  37   18   36 1
  38   18   37 1
  39   18   38 1

#	End of record

