#	Name: ASD01148514
#	Creating user name:	WinNT
#	Creation time:	15. 06. 2019 19:02

#	Modifying user name:	WinNT
#	Modification time:	15. 06. 2019 19:02

#	Program:	/corina/corina34_cracker 3.40 0067  02.08.2006

@<TRIPOS>MOLECULE
ASD01148514
  49   52    0    0    0
SMALL
NO_CHARGES


@<TRIPOS>ATOM
   1 C1            -0.0180     1.4347     0.0451 C.ar    
   2 C2            -0.0166     0.0528     0.0406 C.ar    
   3 C3             1.1824    -0.6375     0.0177 C.ar    
   4 C4             2.3790     0.0562    -0.0007 C.ar    
   5 C5             2.3764     1.4386     0.0039 C.ar    
   6 C6             1.1783     2.1276     0.0267 C.ar    
   7 C7             3.6799     2.1945    -0.0161 C.3     
   8 O8             4.6902     1.4619    -0.7386 O.3     
   9 C9             3.5592     3.4841    -0.8626 C.3     
  10 C10            4.0456     3.0305    -2.2259 C.2     
  11 N11            4.6593     1.9023    -2.0819 N.2     
  12 C12            3.8512     3.7514    -3.4956 C.ar    
  13 C13            4.3743     3.1984    -4.7425 C.ar    
  14 C14            3.1648     4.9578    -3.5158 C.ar    
  15 C15            2.9668     5.6556    -4.6938 C.ar    
  16 C16            3.4466     5.1796    -5.9068 C.ar    
  17 C17            4.1725     3.9122    -5.9474 C.ar    
  18 C18            3.2205     5.9446    -7.1453 C.2     
  19 O19            3.7318     5.5807    -8.1865 O.2     
  20 N20            2.4467     7.0480    -7.1241 N.am    
  21 C21            4.6737     3.3937    -7.1479 C.ar    
  22 C22            5.0678     1.9817    -4.7699 C.ar    
  23 C23            4.1465     2.5135     1.4056 C.3     
  24 F24            4.3126     1.3222     2.1202 F       
  25 F25            5.3644     3.1999     1.3538 F       
  26 F26            3.1890     3.3099     2.0430 F       
  27 Cl27           1.1849    -2.3735     0.0126 Cl      
  28 C28            2.2398     7.7479    -8.2572 C.2     
  29 O29            1.4671     8.8498    -8.2360 O.3     
  30 C30            1.2881     9.5537    -9.4932 C.3     
  31 O31            2.7507     7.3843    -9.2975 O.2     
  32 C32            5.5387     1.5018    -5.9559 C.ar    
  33 C33            5.3451     2.2070    -7.1406 C.ar    
  34 H34           -0.9539     1.9736     0.0584 H       
  35 H35           -0.9512    -0.4883     0.0552 H       
  36 H36            3.3152    -0.4821    -0.0182 H       
  37 H37            1.1768     3.2075     0.0302 H       
  38 H38            2.5229     3.8183    -0.9130 H       
  39 H39            4.2013     4.2698    -0.4644 H       
  40 H40            2.7766     5.3602    -2.5919 H       
  41 H41            2.4271     6.5907    -4.6695 H       
  42 H42            2.0387     7.3383    -6.2934 H       
  43 H43            4.5290     3.9303    -8.0739 H       
  44 H44            5.2289     1.4274    -3.8571 H       
  45 H45            0.6458    10.4202    -9.3363 H       
  46 H46            2.2578     9.8831    -9.8664 H       
  47 H47            0.8265     8.8862   -10.2209 H       
  48 H48            6.0737     0.5638    -5.9759 H       
  49 H49            5.7312     1.8080    -8.0669 H       
@<TRIPOS>BOND
   1    1    2 ar
   2    1    6 ar
   3    1   34 1
   4    2    3 ar
   5    2   35 1
   6    3    4 ar
   7    3   27 1
   8    4    5 ar
   9    4   36 1
  10    5    6 ar
  11    5    7 1
  12    6   37 1
  13    7    8 1
  14    7    9 1
  15    7   23 1
  16    8   11 1
  17    9   10 1
  18    9   38 1
  19    9   39 1
  20   10   11 2
  21   10   12 1
  22   12   13 ar
  23   12   14 ar
  24   13   22 ar
  25   13   17 ar
  26   14   15 ar
  27   14   40 1
  28   15   16 ar
  29   15   41 1
  30   16   17 ar
  31   16   18 1
  32   17   21 ar
  33   18   19 2
  34   18   20 am
  35   20   28 am
  36   20   42 1
  37   21   33 ar
  38   21   43 1
  39   22   32 ar
  40   22   44 1
  41   23   24 1
  42   23   25 1
  43   23   26 1
  44   28   29 1
  45   28   31 2
  46   29   30 1
  47   30   45 1
  48   30   46 1
  49   30   47 1
  50   32   33 ar
  51   32   48 1
  52   33   49 1

#	End of record

