#	Name: ASD03430622
#	Creating user name:	WinNT
#	Creation time:	15. 06. 2019 20:41

#	Modifying user name:	WinNT
#	Modification time:	15. 06. 2019 20:41

#	Program:	/corina/corina34_cracker 3.40 0067  02.08.2006

@<TRIPOS>MOLECULE
ASD03430622
  39   41    0    0    0
SMALL
NO_CHARGES


@<TRIPOS>ATOM
   1 N1            -0.0162     1.3400     0.0094 N.am    
   2 C2             0.0021    -0.0041     0.0020 C.2     
   3 C3             1.4376    -0.4368    -0.0138 C.2     
   4 C4             2.2107     0.8150    -0.0139 C.ar    
   5 C5             3.5814     1.0885    -0.0237 C.ar    
   6 C6             4.0211     2.3980    -0.0199 C.ar    
   7 C7             3.0972     3.4427    -0.0090 C.ar    
   8 C8             1.7329     3.1733     0.0019 C.ar    
   9 C9             1.2767     1.8652    -0.0001 C.ar    
  10 O10            5.3597     2.6505    -0.0226 O.3     
  11 O11            3.5156     4.7362    -0.0128 O.3     
  12 C12            4.8772     4.9744     0.3588 C.3     
  13 C13            5.7638     3.9729    -0.3936 C.3     
  14 O14           -0.9667    -0.7342     0.0072 O.2     
  15 O15            1.8679    -1.5721    -0.0242 O.2     
  16 C16           -1.2370     2.1497     0.0198 C.3     
  17 C17           -1.6546     2.4243     1.4658 C.3     
  18 O18           -0.6614     3.2297     2.1037 O.3     
  19 C19           -0.9561     3.5456     3.4658 C.3     
  20 C20            0.1686     4.4062     4.0447 C.3     
  21 O21            0.2053     5.6625     3.3646 O.3     
  22 C22            1.2263     6.5466     3.8315 C.3     
  23 H23            4.2951     0.2779    -0.0340 H       
  24 H24            1.0249     3.9887     0.0121 H       
  25 H25            5.1596     5.9916     0.0873 H       
  26 H26            4.9947     4.8342     1.4333 H       
  27 H27            6.8075     4.1286    -0.1208 H       
  28 H28            5.6400     4.1073    -1.4682 H       
  29 H29           -1.0504     3.0948    -0.4902 H       
  30 H30           -2.0343     1.6115    -0.4928 H       
  31 H31           -2.6094     2.9501     1.4747 H       
  32 H32           -1.7550     1.4798     2.0006 H       
  33 H33           -1.8964     4.0946     3.5162 H       
  34 H34           -1.0420     2.6244     4.0421 H       
  35 H35           -0.0113     4.5731     5.1067 H       
  36 H36            1.1220     3.8943     3.9138 H       
  37 H37            1.0682     6.7579     4.8891 H       
  38 H38            2.2016     6.0791     3.6962 H       
  39 H39            1.1878     7.4773     3.2654 H       
@<TRIPOS>BOND
   1    1    2 am
   2    1    9 1
   3    1   16 1
   4    2    3 1
   5    2   14 2
   6    3    4 1
   7    3   15 2
   8    4    5 ar
   9    4    9 ar
  10    5    6 ar
  11    5   23 1
  12    6    7 ar
  13    6   10 1
  14    7    8 ar
  15    7   11 1
  16    8    9 ar
  17    8   24 1
  18   10   13 1
  19   11   12 1
  20   12   13 1
  21   12   25 1
  22   12   26 1
  23   13   27 1
  24   13   28 1
  25   16   17 1
  26   16   29 1
  27   16   30 1
  28   17   18 1
  29   17   31 1
  30   17   32 1
  31   18   19 1
  32   19   20 1
  33   19   33 1
  34   19   34 1
  35   20   21 1
  36   20   35 1
  37   20   36 1
  38   21   22 1
  39   22   37 1
  40   22   38 1
  41   22   39 1

#	End of record

