#	Name: ASD02038002
#	Creating user name:	WinNT
#	Creation time:	15. 06. 2019 20:16

#	Modifying user name:	WinNT
#	Modification time:	15. 06. 2019 20:16

#	Program:	/corina/corina34_cracker 3.40 0067  02.08.2006

@<TRIPOS>MOLECULE
ASD02038002
  55   58    0    0    0
SMALL
NO_CHARGES


@<TRIPOS>ATOM
   1 C1            -9.9032     1.2445     0.5288 C.ar    
   2 C2            -9.8846    -0.1416     0.5175 C.ar    
   3 C3            -8.6849    -0.8237     0.3949 C.ar    
   4 C4            -7.5006    -0.1276     0.2836 C.ar    
   5 C5            -7.5110     1.2711     0.2942 C.ar    
   6 C6            -8.7256     1.9540     0.4121 C.ar    
   7 Cl7          -11.4119     2.0894     0.6830 Cl      
   8 Cl8          -11.3713    -1.0269     0.6583 Cl      
   9 C9            -6.2501     2.0207     0.1763 C.2     
  10 C10           -6.2637     3.3690     0.1869 C.2     
  11 C11           -6.3057     6.1818    -0.1286 C.3     
  12 N12           -5.0308     5.4589    -0.0247 N.am    
  13 C13           -5.0094     4.1146     0.0696 C.2     
  14 C14           -6.2586     7.0899    -1.3614 C.3     
  15 C15           -5.0277     7.9954    -1.2763 C.3     
  16 C16           -3.7609     7.1368    -1.2601 C.3     
  17 C17           -3.7797     6.2292    -0.0261 C.3     
  18 C18           -4.9960     8.9278    -2.4890 C.3     
  19 O19           -3.9137     9.8508    -2.3519 O.3     
  20 C20           -3.7439    10.7560    -3.3523 C.ar    
  21 C21           -2.7125    11.6809    -3.2826 C.ar    
  22 C22           -4.5989    10.7503    -4.4449 C.ar    
  23 C23           -4.4268    11.6684    -5.4618 C.ar    
  24 C24           -3.3979    12.5980    -5.3901 C.ar    
  25 C25           -2.5400    12.5999    -4.2985 C.ar    
  26 N26           -3.2204    13.5309    -6.4192 N.am    
  27 C27           -2.0483    14.1769    -6.5590 C.2     
  28 C28           -0.8999    13.8981    -5.6273 C.3     
  29 C29           -1.4249    13.6104    -4.2231 C.3     
  30 O30           -3.9473     3.5206     0.0572 O.2     
  31 O31           -1.9158    14.9930    -7.4465 O.2     
  32 H32           -8.6778    -1.9036     0.3868 H       
  33 H33           -6.5663    -0.6611     0.1888 H       
  34 H34           -8.7410     3.0339     0.4206 H       
  35 H35           -5.3138     1.4908     0.0813 H       
  36 H36           -7.2000     3.8989     0.2819 H       
  37 H37           -7.1231     5.4682    -0.2315 H       
  38 H38           -6.4566     6.7869     0.7654 H       
  39 H39           -6.1988     6.4784    -2.2617 H       
  40 H40           -7.1593     7.7028    -1.3965 H       
  41 H41           -5.0759     8.5888    -0.3633 H       
  42 H42           -3.7246     6.5248    -2.1613 H       
  43 H43           -2.8839     7.7830    -1.2231 H       
  44 H44           -3.7246     6.8382     0.8762 H       
  45 H45           -2.9305     5.5469    -0.0614 H       
  46 H46           -4.8591     8.3394    -3.3962 H       
  47 H47           -5.9358     9.4765    -2.5501 H       
  48 H48           -2.0448    11.6824    -2.4338 H       
  49 H49           -5.3993    10.0273    -4.5003 H       
  50 H50           -5.0920    11.6632    -6.3126 H       
  51 H51           -3.9471    13.7124    -7.0355 H       
  52 H52           -0.3436    13.0326    -5.9872 H       
  53 H53           -0.2392    14.7646    -5.5976 H       
  54 H54           -1.8017    14.5324    -3.7803 H       
  55 H55           -0.6169    13.2157    -3.6071 H       
@<TRIPOS>BOND
   1    1    2 ar
   2    1    7 1
   3    1    6 ar
   4    2    3 ar
   5    2    8 1
   6    3    4 ar
   7    3   32 1
   8    4    5 ar
   9    4   33 1
  10    5    6 ar
  11    5    9 1
  12    6   34 1
  13    9   10 2
  14    9   35 1
  15   10   13 1
  16   10   36 1
  17   11   12 1
  18   11   14 1
  19   11   37 1
  20   11   38 1
  21   12   13 am
  22   12   17 1
  23   13   30 2
  24   14   15 1
  25   14   39 1
  26   14   40 1
  27   15   16 1
  28   15   18 1
  29   15   41 1
  30   16   17 1
  31   16   42 1
  32   16   43 1
  33   17   44 1
  34   17   45 1
  35   18   19 1
  36   18   46 1
  37   18   47 1
  38   19   20 1
  39   20   21 ar
  40   20   22 ar
  41   21   25 ar
  42   21   48 1
  43   22   23 ar
  44   22   49 1
  45   23   24 ar
  46   23   50 1
  47   24   25 ar
  48   24   26 1
  49   25   29 1
  50   26   27 am
  51   26   51 1
  52   27   28 1
  53   27   31 2
  54   28   29 1
  55   28   52 1
  56   28   53 1
  57   29   54 1
  58   29   55 1

#	End of record

