#	Name: ASD01910824
#	Creating user name:	WinNT
#	Creation time:	15. 06. 2019 19:56

#	Modifying user name:	WinNT
#	Modification time:	15. 06. 2019 19:56

#	Program:	/corina/corina34_cracker 3.40 0067  02.08.2006

@<TRIPOS>MOLECULE
ASD01910824
  37   39    0    0    0
SMALL
NO_CHARGES


@<TRIPOS>ATOM
   1 N1            -0.0079     1.4083    -0.0033 N.2     
   2 N2            -0.0062     0.0084    -0.0446 N.pl3   
   3 C3             1.2407     1.8248     0.0377 C.2     
   4 C4             2.0820     0.6992     0.0238 C.2     
   5 C5             1.2914    -0.4111    -0.0272 C.2     
   6 C6             1.7569    -1.8155    -0.0576 C.ar    
   7 C7             1.6835     3.2399     0.0890 C.ar    
   8 C8             0.7349     4.2600     0.0971 C.ar    
   9 C9             1.1616     5.5756     0.1456 C.ar    
  10 C10            2.5274     5.8284     0.1845 C.ar    
  11 C11            3.4146     4.7648     0.1737 C.ar    
  12 N12            2.9790     3.5221     0.1322 N.ar    
  13 C13           -1.1897    -0.8535    -0.0969 C.3     
  14 C14           -1.6277    -1.0191    -1.5293 C.2     
  15 O15           -2.6993    -1.7731    -1.8205 O.3     
  16 O16           -1.0142    -0.4732    -2.4156 O.2     
  17 C17           -3.0635    -1.8880    -3.2214 C.3     
  18 F18            2.9853     7.0986     0.2319 F       
  19 C19            0.9324    -2.8151    -0.5747 C.ar    
  20 C20            3.0239    -2.1435     0.4253 C.ar    
  21 C21            1.3712    -4.1225    -0.6012 C.ar    
  22 C22            2.6283    -4.4440    -0.1150 C.ar    
  23 C23            3.4533    -3.4539     0.3943 C.ar    
  24 F24            3.0533    -5.7261    -0.1428 F       
  25 H25            3.1617     0.7111     0.0486 H       
  26 H26           -0.3193     4.0274     0.0656 H       
  27 H27            0.4493     6.3873     0.1527 H       
  28 H28            4.4770     4.9565     0.2034 H       
  29 H29           -0.9474    -1.8293     0.3241 H       
  30 H30           -1.9957    -0.3992     0.4793 H       
  31 H31           -3.2840    -0.8985    -3.6218 H       
  32 H32           -2.2356    -2.3286    -3.7770 H       
  33 H33           -3.9441    -2.5232    -3.3170 H       
  34 H34           -0.0478    -2.5656    -0.9532 H       
  35 H35            3.6676    -1.3726     0.8225 H       
  36 H36            0.7336    -4.8971    -1.0013 H       
  37 H37            4.4322    -3.7095     0.7721 H       
@<TRIPOS>BOND
   1    1    2 1
   2    1    3 2
   3    2   13 1
   4    2    5 1
   5    3    4 1
   6    3    7 1
   7    4    5 2
   8    4   25 1
   9    5    6 1
  10    6   19 ar
  11    6   20 ar
  12    7    8 ar
  13    7   12 ar
  14    8    9 ar
  15    8   26 1
  16    9   10 ar
  17    9   27 1
  18   10   11 ar
  19   10   18 1
  20   11   12 ar
  21   11   28 1
  22   13   14 1
  23   13   29 1
  24   13   30 1
  25   14   15 1
  26   14   16 2
  27   15   17 1
  28   17   31 1
  29   17   32 1
  30   17   33 1
  31   19   21 ar
  32   19   34 1
  33   20   23 ar
  34   20   35 1
  35   21   22 ar
  36   21   36 1
  37   22   23 ar
  38   22   24 1
  39   23   37 1

#	End of record

