#	Name: ASD01900564
#	Creating user name:	WinNT
#	Creation time:	15. 06. 2019 19:52

#	Modifying user name:	WinNT
#	Modification time:	15. 06. 2019 19:52

#	Program:	/corina/corina34_cracker 3.40 0067  02.08.2006

@<TRIPOS>MOLECULE
ASD01900564
  40   43    0    0    0
SMALL
NO_CHARGES


@<TRIPOS>ATOM
   1 C1             1.1577     3.0217     0.7491 C.2     
   2 C2             2.3018     3.2456     1.4623 C.2     
   3 C3             3.2694     2.2922     1.2510 C.2     
   4 C4             2.9318     1.3206     0.3951 C.2     
   5 S5             1.3510     1.5557    -0.2022 S.3     
   6 C6            -0.0407     3.8649     0.7776 C.2     
   7 O7            -0.0687     4.8590     1.4793 O.2     
   8 N8            -1.1116     3.5396     0.0268 N.am    
   9 C9            -2.2899     4.2881     0.1270 C.ar    
  10 C10           -2.2258     5.6597     0.3372 C.ar    
  11 C11           -3.3890     6.3979     0.4361 C.ar    
  12 C12           -4.6227     5.7681     0.3253 C.ar    
  13 C13           -4.6861     4.3977     0.1157 C.ar    
  14 C14           -3.5233     3.6605     0.0107 C.ar    
  15 O15           -8.6766     9.8249     0.5468 O.3     
  16 C16           -7.7206     9.2263    -0.3354 C.3     
  17 C17           -7.6840     7.7195    -0.0578 C.3     
  18 N18           -7.4968     7.5644     1.4032 N.am    
  19 C19           -8.3192     8.2802     2.3831 C.3     
  20 C20           -8.3603     9.7522     1.9373 C.3     
  21 C21           -6.4531     6.7539     1.5775 C.2     
  22 N22           -5.8051     6.5182     0.4257 N.am    
  23 C23           -6.4309     7.0925    -0.6243 C.2     
  24 O24           -6.1271     6.2850     2.6504 O.2     
  25 O25           -6.0641     7.1029    -1.7799 O.2     
  26 Cl26          -3.3096     8.1119     0.6993 Cl      
  27 H27            2.4328     4.0878     2.1256 H       
  28 H28            4.2319     2.3253     1.7398 H       
  29 H29            3.5744     0.4978     0.1188 H       
  30 H30           -1.0657     2.7866    -0.5831 H       
  31 H31           -1.2667     6.1486     0.4236 H       
  32 H32           -5.6451     3.9085     0.0300 H       
  33 H33           -3.5730     2.5947    -0.1572 H       
  34 H34           -8.0155     9.4020    -1.3699 H       
  35 H35           -6.7355     9.6568    -0.1557 H       
  36 H36           -8.5916     7.2254    -0.4045 H       
  37 H37           -9.3275     7.8666     2.3966 H       
  38 H38           -7.8704     8.2032     3.3735 H       
  39 H39           -7.3874    10.2115     2.1124 H       
  40 H40           -9.1200    10.2836     2.5104 H       
@<TRIPOS>BOND
   1    1    2 2
   2    1    5 1
   3    1    6 1
   4    2    3 1
   5    2   27 1
   6    3    4 2
   7    3   28 1
   8    4    5 1
   9    4   29 1
  10    6    7 2
  11    6    8 am
  12    8    9 1
  13    8   30 1
  14    9   10 ar
  15    9   14 ar
  16   10   11 ar
  17   10   31 1
  18   11   12 ar
  19   11   26 1
  20   12   13 ar
  21   12   22 1
  22   13   14 ar
  23   13   32 1
  24   14   33 1
  25   15   16 1
  26   15   20 1
  27   16   17 1
  28   16   34 1
  29   16   35 1
  30   17   18 1
  31   17   23 1
  32   17   36 1
  33   18   19 1
  34   18   21 am
  35   19   20 1
  36   19   37 1
  37   19   38 1
  38   20   39 1
  39   20   40 1
  40   21   22 am
  41   21   24 2
  42   22   23 am
  43   23   25 2

#	End of record

