#	Name: ASD00190059
#	Creating user name:	WinNT
#	Creation time:	15. 06. 2019 18:33

#	Modifying user name:	WinNT
#	Modification time:	15. 06. 2019 18:33

#	Program:	/corina/corina34_cracker 3.40 0067  02.08.2006

@<TRIPOS>MOLECULE
ASD00190059
  54   58    0    0    0
SMALL
NO_CHARGES


@<TRIPOS>ATOM
   1 C1             0.1335     1.4611     1.1396 C.ar    
   2 C2             0.1800     0.0848     1.3310 C.ar    
   3 C3             1.3332    -0.6136     1.1287 C.ar    
   4 C4             2.4947     0.0598     0.7207 C.ar    
   5 C5             2.4413     1.4604     0.5270 C.ar    
   6 C6             1.2453     2.1474     0.7429 C.ar    
   7 N7             3.6410    -0.6059     0.5159 N.ar    
   8 C8             4.7498    -0.0105     0.1339 C.ar    
   9 C9             4.8091     1.3748    -0.0869 C.ar    
  10 C10            3.6602     2.1500     0.1014 C.ar    
  11 N11            5.7959     2.2529    -0.4781 N.pl3   
  12 C12            5.2446     3.4865    -0.5149 C.2     
  13 N13            3.9868     3.4214    -0.1731 N.2     
  14 N14            5.8931    -0.7727    -0.0558 N.pl3   
  15 C15            5.8290    -2.1653     0.0433 C.ar    
  16 C16            6.9122    -2.8784     0.5412 C.ar    
  17 C17            6.8453    -4.2543     0.6382 C.ar    
  18 C18            5.7018    -4.9224     0.2399 C.ar    
  19 C19            4.6218    -4.2156    -0.2566 C.ar    
  20 C20            4.6797    -2.8390    -0.3505 C.ar    
  21 C21            5.9740     4.7493    -0.8946 C.3     
  22 C22            6.6898     5.3140     0.3342 C.3     
  23 C23            7.4303     6.5961    -0.0513 C.3     
  24 C24            8.4576     6.2837    -1.1412 C.3     
  25 C25            7.7419     5.7191    -2.3699 C.3     
  26 C26            7.0014     4.4369    -1.9844 C.3     
  27 C27            8.0199    -5.0288     1.1782 C.3     
  28 F28            9.0498    -4.1423     1.5108 F       
  29 F29            7.6270    -5.7364     2.3193 F       
  30 F30            8.4733    -5.9266     0.2057 F       
  31 C31            3.3780    -4.9479    -0.6898 C.3     
  32 F32            2.5038    -5.0652     0.3962 F       
  33 F33            2.7515    -4.2354    -1.7179 F       
  34 F34            3.7239    -6.2231    -1.1497 F       
  35 H35           -0.7927     1.9922     1.3020 H       
  36 H36           -0.7109    -0.4389     1.6449 H       
  37 H37            1.3528    -1.6825     1.2824 H       
  38 H38            1.1996     3.2164     0.5964 H       
  39 H39            6.7158     2.0277    -0.6879 H       
  40 H40            6.7371    -0.3392    -0.2572 H       
  41 H41            7.8058    -2.3574     0.8517 H       
  42 H42            5.6522    -5.9985     0.3165 H       
  43 H43            3.8358    -2.2876    -0.7380 H       
  44 H44            5.2598     5.4831    -1.2681 H       
  45 H45            5.9579     5.5366     1.1106 H       
  46 H46            7.4040     4.5802     0.7077 H       
  47 H47            6.7161     7.3299    -0.4248 H       
  48 H48            7.9402     6.9984     0.8241 H       
  49 H49            8.9852     7.1971    -1.4158 H       
  50 H50            9.1719     5.5499    -0.7676 H       
  51 H51            7.0277     6.4528    -2.7435 H       
  52 H52            8.4738     5.4965    -3.1464 H       
  53 H53            7.7156     3.7031    -1.6109 H       
  54 H54            6.4915     4.0347    -2.8598 H       
@<TRIPOS>BOND
   1    1    2 ar
   2    1    6 ar
   3    1   35 1
   4    2    3 ar
   5    2   36 1
   6    3    4 ar
   7    3   37 1
   8    4    5 ar
   9    4    7 ar
  10    5    6 ar
  11    5   10 ar
  12    6   38 1
  13    7    8 ar
  14    8    9 ar
  15    8   14 1
  16    9   10 ar
  17    9   11 1
  18   10   13 1
  19   11   12 1
  20   11   39 1
  21   12   13 2
  22   12   21 1
  23   14   15 1
  24   14   40 1
  25   15   16 ar
  26   15   20 ar
  27   16   17 ar
  28   16   41 1
  29   17   18 ar
  30   17   27 1
  31   18   19 ar
  32   18   42 1
  33   19   20 ar
  34   19   31 1
  35   20   43 1
  36   21   22 1
  37   21   26 1
  38   21   44 1
  39   22   23 1
  40   22   45 1
  41   22   46 1
  42   23   24 1
  43   23   47 1
  44   23   48 1
  45   24   25 1
  46   24   49 1
  47   24   50 1
  48   25   26 1
  49   25   51 1
  50   25   52 1
  51   26   53 1
  52   26   54 1
  53   27   28 1
  54   27   29 1
  55   27   30 1
  56   31   32 1
  57   31   33 1
  58   31   34 1

#	End of record

