#	Name: ASD07030074
#	Creating user name:	WinNT
#	Creation time:	15. 06. 2019 21:08

#	Modifying user name:	WinNT
#	Modification time:	15. 06. 2019 21:08

#	Program:	/corina/corina34_cracker 3.40 0067  02.08.2006

@<TRIPOS>MOLECULE
ASD07030074
  53   56    0    0    0
SMALL
NO_CHARGES


@<TRIPOS>ATOM
   1 C1            -0.0187     1.5258     0.0104 C.3     
   2 C2             0.0021    -0.0041     0.0020 C.3     
   3 N3             1.3595     2.0342     0.0000 N.3     
   4 N4            -1.3761    -0.5125     0.0124 N.3     
   5 C5            -1.3954    -1.9814     0.0047 C.3     
   6 C6            -2.6290    -2.6748     0.5864 C.3     
   7 C7            -2.3959    -2.6699    -0.9257 C.3     
   8 C8            -2.4161    -3.9743     1.3191 C.ar    
   9 C9            -2.7814    -4.0853     2.6480 C.ar    
  10 C10           -2.5873    -5.2755     3.3218 C.ar    
  11 C11           -2.0252    -6.3600     2.6641 C.ar    
  12 C12           -1.6595    -6.2461     1.3307 C.ar    
  13 C13           -1.8609    -5.0554     0.6597 C.ar    
  14 O14           -1.8328    -7.5318     3.3249 O.3     
  15 C15           -1.2493    -8.6059     2.5846 C.3     
  16 C16           -1.1120    -9.8327     3.4885 C.3     
  17 C17           -0.4966   -10.9654     2.7078 C.ar    
  18 C18            0.8768   -11.1196     2.6798 C.ar    
  19 C19            1.4413   -12.1585     1.9637 C.ar    
  20 C20            0.6322   -13.0436     1.2759 C.ar    
  21 C21           -0.7413   -12.8899     1.3046 C.ar    
  22 C22           -1.3059   -11.8535     2.0243 C.ar    
  23 C23            1.3788     3.5031     0.0077 C.3     
  24 C24            2.6233     4.1903     0.5731 C.3     
  25 C25            2.3614     4.2017    -0.9343 C.3     
  26 H26           -0.5459     1.8868    -0.8726 H       
  27 H27           -0.5289     1.8773     0.9072 H       
  28 H28            0.5123    -0.3556    -0.8948 H       
  29 H29            0.5293    -0.3651     0.8851 H       
  30 H30            1.8883     1.6616     0.7744 H       
  31 H31           -1.8899    -0.1483     0.8007 H       
  32 H32           -0.4298    -2.4652     0.1520 H       
  33 H33           -3.4263    -2.0410     0.9748 H       
  34 H34           -3.0398    -2.0330    -1.5322 H       
  35 H35           -2.0885    -3.6067    -1.3906 H       
  36 H36           -3.2186    -3.2406     3.1597 H       
  37 H37           -2.8725    -5.3616     4.3599 H       
  38 H38           -1.2218    -7.0889     0.8164 H       
  39 H39           -1.5808    -4.9677    -0.3797 H       
  40 H40           -1.8869    -8.8501     1.7350 H       
  41 H41           -0.2645    -8.3069     2.2258 H       
  42 H42           -0.4744    -9.5885     4.3381 H       
  43 H43           -2.0968   -10.1317     3.8473 H       
  44 H44            1.5089   -10.4281     3.2172 H       
  45 H45            2.5143   -12.2786     1.9413 H       
  46 H46            1.0733   -13.8549     0.7158 H       
  47 H47           -1.3733   -13.5812     0.7670 H       
  48 H48           -2.3792   -11.7357     2.0497 H       
  49 H49            0.4162     3.9850     0.1789 H       
  50 H50            2.4796     5.1245     1.1160 H       
  51 H51            3.4278     3.5525     0.9394 H       
  52 H52            2.9936     3.5713    -1.5597 H       
  53 H53            2.0453     5.1433    -1.3831 H       
@<TRIPOS>BOND
   1    1    2 1
   2    1    3 1
   3    1   26 1
   4    1   27 1
   5    2    4 1
   6    2   28 1
   7    2   29 1
   8    3   23 1
   9    3   30 1
  10    4    5 1
  11    4   31 1
  12    5    6 1
  13    5    7 1
  14    5   32 1
  15    6    7 1
  16    6    8 1
  17    6   33 1
  18    7   34 1
  19    7   35 1
  20    8    9 ar
  21    8   13 ar
  22    9   10 ar
  23    9   36 1
  24   10   11 ar
  25   10   37 1
  26   11   12 ar
  27   11   14 1
  28   12   13 ar
  29   12   38 1
  30   13   39 1
  31   14   15 1
  32   15   16 1
  33   15   40 1
  34   15   41 1
  35   16   17 1
  36   16   42 1
  37   16   43 1
  38   17   18 ar
  39   17   22 ar
  40   18   19 ar
  41   18   44 1
  42   19   20 ar
  43   19   45 1
  44   20   21 ar
  45   20   46 1
  46   21   22 ar
  47   21   47 1
  48   22   48 1
  49   23   24 1
  50   23   25 1
  51   23   49 1
  52   24   25 1
  53   24   50 1
  54   24   51 1
  55   25   52 1
  56   25   53 1

#	End of record

