#	Name: ASD01911911
#	Creating user name:	WinNT
#	Creation time:	15. 06. 2019 19:58

#	Modifying user name:	WinNT
#	Modification time:	15. 06. 2019 19:58

#	Program:	/corina/corina34_cracker 3.40 0067  02.08.2006

@<TRIPOS>MOLECULE
ASD01911911
  34   36    0    0    0
SMALL
NO_CHARGES


@<TRIPOS>ATOM
   1 C1            -1.0483    -0.4837    -2.0508 C.ar    
   2 C2            -1.0614     0.0602    -0.7704 C.ar    
   3 C3            -1.0256     1.4449    -0.6419 C.ar    
   4 N4            -0.9807     2.1900    -1.7341 N.ar    
   5 C5            -0.9698     1.6369    -2.9302 C.ar    
   6 N6            -1.0026     0.3295    -3.0932 N.ar    
   7 O7            -1.1084    -0.7407     0.3267 O.3     
   8 C8            -1.1451    -2.0852     0.1339 C.ar    
   9 C9             0.0139    -2.7699    -0.2041 C.ar    
  10 C10           -0.0222    -4.1394    -0.4003 C.ar    
  11 C11           -1.2138    -4.8291    -0.2599 C.ar    
  12 C12           -2.3755    -4.1472     0.0783 C.ar    
  13 C13           -2.3390    -2.7742     0.2804 C.ar    
  14 N14           -3.5796    -4.8438     0.2202 N.am    
  15 C15           -3.5749    -6.1113     0.6784 C.2     
  16 C16           -4.8356    -6.8840     0.7297 C.ar    
  17 O17           -2.5350    -6.6195     1.0495 O.2     
  18 C18           -4.8249    -8.1963     1.2051 C.ar    
  19 F19            1.1071    -4.8038    -0.7297 F       
  20 C20           -6.0179    -8.9075     1.2464 C.ar    
  21 C21           -7.1744    -8.2822     0.8120 C.ar    
  22 C22           -7.1102    -6.9755     0.3520 C.ar    
  23 N23           -5.9700    -6.3220     0.3279 N.ar    
  24 F24           -3.6720    -8.7664     1.6185 F       
  25 H25           -1.0706    -1.5542    -2.1916 H       
  26 H26           -1.0347     1.9050     0.3352 H       
  27 H27           -0.9331     2.2733    -3.8020 H       
  28 H28            0.9447    -2.2335    -0.3145 H       
  29 H29           -1.2404    -5.8977    -0.4136 H       
  30 H30           -3.2415    -2.2423     0.5433 H       
  31 H31           -4.4182    -4.4148    -0.0111 H       
  32 H32           -6.0425    -9.9246     1.6086 H       
  33 H33           -8.1178    -8.8075     0.8308 H       
  34 H34           -8.0111    -6.4862     0.0124 H       
@<TRIPOS>BOND
   1    1    2 ar
   2    1    6 ar
   3    1   25 1
   4    2    3 ar
   5    2    7 1
   6    3    4 ar
   7    3   26 1
   8    4    5 ar
   9    5    6 ar
  10    5   27 1
  11    7    8 1
  12    8    9 ar
  13    8   13 ar
  14    9   10 ar
  15    9   28 1
  16   10   11 ar
  17   10   19 1
  18   11   12 ar
  19   11   29 1
  20   12   13 ar
  21   12   14 1
  22   13   30 1
  23   14   15 am
  24   14   31 1
  25   15   16 1
  26   15   17 2
  27   16   18 ar
  28   16   23 ar
  29   18   20 ar
  30   18   24 1
  31   20   21 ar
  32   20   32 1
  33   21   22 ar
  34   21   33 1
  35   22   23 ar
  36   22   34 1

#	End of record

