#	Name: ASD08170130
#	Creating user name:	WinNT
#	Creation time:	15. 06. 2019 21:17

#	Modifying user name:	WinNT
#	Modification time:	15. 06. 2019 21:17

#	Program:	/corina/corina34_cracker 3.40 0067  02.08.2006

@<TRIPOS>MOLECULE
ASD08170130
  67   68    0    0    0
SMALL
NO_CHARGES


@<TRIPOS>ATOM
   1 C1            -0.0184     1.5028     0.0103 C.3     
   2 C2             3.1542     4.2782    -0.0051 C.3     
   3 C3             3.3060     5.8007     0.0016 C.3     
   4 C4             4.7695     6.1596    -0.0104 C.2     
   5 C5             0.0021    -0.0041     0.0020 C.2     
   6 S6             5.7936     6.3998     1.4057 S.3     
   7 C7             7.1163     6.7314     0.3688 C.2     
   8 N8             6.7127     6.6418    -0.8625 N.2     
   9 N9             5.5028     6.3417    -1.0624 N.2     
  10 S10            0.0026    -1.0367    -1.4281 S.3     
  11 N11            0.0281    -0.7735     1.0436 N.2     
  12 N12            0.0423    -2.0172     0.8270 N.2     
  13 C13            0.0316    -2.4140    -0.4097 C.2     
  14 N14            0.0439    -3.7376    -0.8365 N.am    
  15 C15            0.0694    -4.7369     0.0675 C.2     
  16 O16            0.0817    -4.4819     1.2531 O.2     
  17 N17            8.4080     7.0451     0.7777 N.am    
  18 C18            9.3654     7.2864    -0.1397 C.2     
  19 C19           10.7651     7.6263     0.3033 C.3     
  20 O20            9.1005     7.2299    -1.3219 O.2     
  21 C21            0.0826    -6.1711    -0.3950 C.3     
  22 C22           10.8286     9.0797     0.6966 C.ar    
  23 C23           -1.3161    -6.5925    -0.7653 C.ar    
  24 C24           10.7784     9.4375     2.0309 C.ar    
  25 C25           -2.2146    -6.9498     0.2225 C.ar    
  26 N26            0.5824    -7.0299     0.6870 N.3     
  27 N27           11.7023     7.3761    -0.7999 N.3     
  28 C28           10.8365    10.7707     2.3916 C.ar    
  29 C29           10.9453    11.7460     1.4181 C.ar    
  30 C30           10.9964    11.3881     0.0838 C.ar    
  31 C31           10.9426    10.0547    -0.2766 C.ar    
  32 C32           -1.7022    -6.6161    -2.0924 C.ar    
  33 C33           -2.9852    -7.0027    -2.4321 C.ar    
  34 C34           -3.8819    -7.3659    -1.4448 C.ar    
  35 C35           -3.4977    -7.3363    -0.1172 C.ar    
  36 C36            1.4170     2.0324    -0.0006 C.3     
  37 S37            1.3924     3.8462     0.0094 S.3     
  38 H38           -0.5455     1.8639    -0.8728 H       
  39 H39           -0.5286     1.8543     0.9071 H       
  40 H40            3.6209     3.8705    -0.9018 H       
  41 H41            3.6379     3.8610     0.8781 H       
  42 H42            2.8222     6.2179    -0.8815 H       
  43 H43            2.8392     6.2084     0.8983 H       
  44 H44            0.0340    -3.9415    -1.7848 H       
  45 H45            8.6200     7.0903     1.7232 H       
  46 H46           11.0363     7.0064     1.1580 H       
  47 H47            0.7331    -6.2665    -1.2644 H       
  48 H48           10.6934     8.6755     2.7915 H       
  49 H49           -1.9142    -6.9274     1.2596 H       
  50 H50            1.5416    -6.8097     0.9096 H       
  51 H51           -0.0040    -6.9591     1.5050 H       
  52 H52           11.4720     7.9394    -1.6047 H       
  53 H53           12.6550     7.5350    -0.5081 H       
  54 H54           10.7965    11.0503     3.4340 H       
  55 H55           10.9900    12.7876     1.6999 H       
  56 H56           11.0810    12.1501    -0.6768 H       
  57 H57           10.9826     9.7751    -1.3191 H       
  58 H58           -1.0017    -6.3323    -2.8638 H       
  59 H59           -3.2872    -7.0205    -3.4689 H       
  60 H60           -4.8844    -7.6676    -1.7101 H       
  61 H61           -4.1982    -7.6201     0.6542 H       
  62 H62            1.9442     1.6713     0.8825 H       
  63 H63            1.9272     1.6808    -0.8974 H       
  64 Cl64          17.6550    17.7876     8.4340 Cl      
  65 H65           17.6550    19.1576     8.4340 H       
  66 Cl66          22.6550    24.1576    13.4340 Cl      
  67 H67           22.6550    25.5276    13.4340 H       
@<TRIPOS>BOND
   1    1    5 1
   2    1   36 1
   3    1   38 1
   4    1   39 1
   5    2    3 1
   6    2   37 1
   7    2   40 1
   8    2   41 1
   9    3    4 1
  10    3   42 1
  11    3   43 1
  12    4    6 1
  13    4    9 2
  14    5   10 1
  15    5   11 2
  16    6    7 1
  17    7    8 2
  18    7   17 1
  19    8    9 1
  20   10   13 1
  21   11   12 1
  22   12   13 2
  23   13   14 1
  24   14   15 am
  25   14   44 1
  26   15   16 2
  27   15   21 1
  28   17   18 am
  29   17   45 1
  30   18   19 1
  31   18   20 2
  32   19   22 1
  33   19   27 1
  34   19   46 1
  35   21   23 1
  36   21   26 1
  37   21   47 1
  38   22   24 ar
  39   22   31 ar
  40   23   32 ar
  41   23   25 ar
  42   24   28 ar
  43   24   48 1
  44   25   35 ar
  45   25   49 1
  46   26   50 1
  47   26   51 1
  48   27   52 1
  49   27   53 1
  50   28   29 ar
  51   28   54 1
  52   29   30 ar
  53   29   55 1
  54   30   31 ar
  55   30   56 1
  56   31   57 1
  57   32   33 ar
  58   32   58 1
  59   33   34 ar
  60   33   59 1
  61   34   35 ar
  62   34   60 1
  63   35   61 1
  64   36   37 1
  65   36   62 1
  66   36   63 1
  67   64   65 1
  68   66   67 1

#	End of record

