#	Name: ASD06660182
#	Creating user name:	WinNT
#	Creation time:	15. 06. 2019 21:08

#	Modifying user name:	WinNT
#	Modification time:	15. 06. 2019 21:08

#	Program:	/corina/corina34_cracker 3.40 0067  02.08.2006

@<TRIPOS>MOLECULE
ASD06660182
  70   73    0    0    0
SMALL
NO_CHARGES


@<TRIPOS>ATOM
   1 C1             0.2283     1.4835    -0.1298 C.2     
   2 C2             0.2346    -0.0232    -0.1578 C.3     
   3 C3            -0.7239    -0.5171    -1.2433 C.3     
   4 O4             1.2502     2.0958    -0.3316 O.2     
   5 O5            -0.9137     2.1454     0.1139 O.3     
   6 C6            -0.8111    -2.0207    -1.1901 C.ar    
   7 C7            -1.7653    -2.6286    -0.3950 C.ar    
   8 C8            -1.8480    -4.0062    -0.3440 C.ar    
   9 C9            -0.9713    -4.7813    -1.0925 C.ar    
  10 C10           -0.0140    -4.1674    -1.8901 C.ar    
  11 C11            0.0595    -2.7892    -1.9409 C.ar    
  12 N12           -1.0519    -6.1748    -1.0428 N.3     
  13 C13           -2.4534    -6.6195    -0.9323 C.3     
  14 C14           -2.7276    -7.5665    -2.1195 C.3     
  15 C15           -1.3080    -8.0524    -2.5140 C.3     
  16 C16           -0.4591    -6.7833    -2.2529 C.3     
  17 C17           -3.6003    -8.7444    -1.6815 C.3     
  18 N18           -3.9423    -9.5596    -2.8497 N.pl3   
  19 C19           -4.7335   -10.6925    -2.6990 C.ar    
  20 C20           -5.1973   -11.0466    -1.4358 C.ar    
  21 C21           -5.9835   -12.1762    -1.3004 C.ar    
  22 C22           -6.2810   -12.9170    -2.4369 C.ar    
  23 C23           -5.7873   -12.5076    -3.6591 C.ar    
  24 N24           -5.0436   -11.4220    -3.7594 N.ar    
  25 C25            2.4816    -0.6441     0.5513 C.2     
  26 O26            2.1637    -0.3782     1.6911 O.2     
  27 N27            1.5889    -0.5005    -0.4482 N.am    
  28 C28            3.8747    -1.1351     0.2527 C.3     
  29 C29            4.6795    -1.2074     1.5519 C.3     
  30 C30            3.9956    -2.1725     2.5224 C.3     
  31 C31            3.9214    -3.5639     1.8904 C.3     
  32 C32            3.1167    -3.4917     0.5911 C.3     
  33 C33            3.8005    -2.5265    -0.3793 C.3     
  34 C34            4.5585    -0.1700    -0.7178 C.3     
  35 H35           -0.0856    -0.4060     0.8112 H       
  36 H36           -1.7126    -0.0897    -1.0768 H       
  37 H37           -0.3548    -0.2090    -2.2215 H       
  38 H38           -0.8682     3.1113     0.1218 H       
  39 H39           -2.4464    -2.0254     0.1870 H       
  40 H40           -2.5933    -4.4804     0.2775 H       
  41 H41            0.6691    -4.7670    -2.4733 H       
  42 H42            0.8004    -2.3112    -2.5645 H       
  43 H43           -2.6007    -7.1511     0.0078 H       
  44 H44           -3.1205    -5.7589    -0.9826 H       
  45 H45           -3.1930    -7.0262    -2.9439 H       
  46 H46           -0.9859    -8.8757    -1.8764 H       
  47 H47           -1.2711    -8.3373    -3.5655 H       
  48 H48           -0.5320    -6.0976    -3.0970 H       
  49 H49            0.5812    -7.0534    -2.0710 H       
  50 H50           -3.0540    -9.3531    -0.9610 H       
  51 H51           -4.5137    -8.3683    -1.2208 H       
  52 H52           -3.6167    -9.3088    -3.7283 H       
  53 H53           -4.9463   -10.4477    -0.5729 H       
  54 H54           -6.3575   -12.4759    -0.3325 H       
  55 H55           -6.8922   -13.8045    -2.3651 H       
  56 H56           -6.0162   -13.0807    -4.5454 H       
  57 H57            1.8432    -0.7133    -1.3598 H       
  58 H58            5.6871    -1.5625     1.3359 H       
  59 H59            4.7323    -0.2161     2.0022 H       
  60 H60            4.5690    -2.2240     3.4480 H       
  61 H61            2.9880    -1.8174     2.7384 H       
  62 H62            4.9291    -3.9191     1.6744 H       
  63 H63            3.4343    -4.2515     2.5818 H       
  64 H64            3.0638    -4.4829     0.1409 H       
  65 H65            2.1090    -3.1365     0.8072 H       
  66 H66            3.2271    -2.4750    -1.3049 H       
  67 H67            4.8081    -2.8817    -0.5953 H       
  68 H68            4.6114     0.8213    -0.2675 H       
  69 H69            5.5661    -0.5251    -0.9338 H       
  70 H70            3.9852    -0.1185    -1.6434 H       
@<TRIPOS>BOND
   1    1    2 1
   2    1    4 2
   3    1    5 1
   4    2    3 1
   5    2   27 1
   6    2   35 1
   7    3    6 1
   8    3   36 1
   9    3   37 1
  10    5   38 1
  11    6    7 ar
  12    6   11 ar
  13    7    8 ar
  14    7   39 1
  15    8    9 ar
  16    8   40 1
  17    9   10 ar
  18    9   12 1
  19   10   11 ar
  20   10   41 1
  21   11   42 1
  22   12   13 1
  23   12   16 1
  24   13   14 1
  25   13   43 1
  26   13   44 1
  27   14   15 1
  28   14   17 1
  29   14   45 1
  30   15   16 1
  31   15   46 1
  32   15   47 1
  33   16   48 1
  34   16   49 1
  35   17   18 1
  36   17   50 1
  37   17   51 1
  38   18   19 1
  39   18   52 1
  40   19   20 ar
  41   19   24 ar
  42   20   21 ar
  43   20   53 1
  44   21   22 ar
  45   21   54 1
  46   22   23 ar
  47   22   55 1
  48   23   24 ar
  49   23   56 1
  50   25   26 2
  51   25   27 am
  52   25   28 1
  53   27   57 1
  54   28   29 1
  55   28   33 1
  56   28   34 1
  57   29   30 1
  58   29   58 1
  59   29   59 1
  60   30   31 1
  61   30   60 1
  62   30   61 1
  63   31   32 1
  64   31   62 1
  65   31   63 1
  66   32   33 1
  67   32   64 1
  68   32   65 1
  69   33   66 1
  70   33   67 1
  71   34   68 1
  72   34   69 1
  73   34   70 1

#	End of record

