#	Name: ASD01420057
#	Creating user name:	WinNT
#	Creation time:	15. 06. 2019 19:20

#	Modifying user name:	WinNT
#	Modification time:	15. 06. 2019 19:20

#	Program:	/corina/corina34_cracker 3.40 0067  02.08.2006

@<TRIPOS>MOLECULE
ASD01420057
  48   50    0    0    0
SMALL
NO_CHARGES


@<TRIPOS>ATOM
   1 C1            -0.0144     1.2116     0.0087 C.2     
   2 O2             0.1690     0.1701     0.6085 O.2     
   3 O3             3.4774     3.1950    -2.3761 O.3     
   4 C4             3.9964     3.9380    -3.5054 C.3     
   5 C5             4.2033     2.8153    -4.5526 C.3     
   6 O6             3.0998     1.9230    -4.2968 O.3     
   7 C7             2.6536     2.1714    -2.9577 C.3     
   8 C8             2.7738     0.8903    -2.1301 C.3     
   9 C9             2.3310     1.1735    -0.6910 C.3     
  10 N10            0.9824     1.7558    -0.7171 N.am    
  11 C11            0.7404     2.9421    -1.5494 C.3     
  12 C12            1.1980     2.6420    -2.9804 C.3     
  13 C13           -1.3305     1.8770     0.0705 C.ar    
  14 C14           -2.5026     1.1204    -0.0124 C.ar    
  15 C15           -3.7283     1.7448     0.0456 C.ar    
  16 C16           -3.8010     3.1259     0.1865 C.ar    
  17 C17           -2.6378     3.8818     0.2693 C.ar    
  18 C18           -1.4078     3.2642     0.2179 C.ar    
  19 O19           -5.0111     3.7377     0.2428 O.3     
  20 C20           -4.9929     0.9300    -0.0443 C.3     
  21 C21           -4.6362    -0.5503    -0.1944 C.3     
  22 C22           -5.8193     1.1290     1.2279 C.3     
  23 C23           -5.8070     1.3840    -1.2575 C.3     
  24 H24            3.2703     4.6709    -3.8573 H       
  25 H25            4.9427     4.4176    -3.2553 H       
  26 H26            4.1472     3.2171    -5.5643 H       
  27 H27            5.1544     2.3080    -4.3907 H       
  28 H28            2.1373     0.1176    -2.5612 H       
  29 H29            3.8099     0.5518    -2.1320 H       
  30 H30            2.3163     0.2431    -0.1234 H       
  31 H31            3.0234     1.8760    -0.2272 H       
  32 H32           -0.3236     3.1786    -1.5481 H       
  33 H33            1.3051     3.7868    -1.1548 H       
  34 H34            1.1170     3.5452    -3.5852 H       
  35 H35            0.5695     1.8603    -3.4070 H       
  36 H36           -2.4470     0.0474    -0.1222 H       
  37 H37           -2.6984     4.9545     0.3787 H       
  38 H38           -0.5043     3.8518     0.2868 H       
  39 H39           -5.3663     3.8251     1.1379 H       
  40 H40           -4.0562    -0.8737     0.6700 H       
  41 H41           -5.5509    -1.1396    -0.2594 H       
  42 H42           -4.0475    -0.6920    -1.1007 H       
  43 H43           -6.0734     2.1836     1.3348 H       
  44 H44           -6.7339     0.5397     1.1629 H       
  45 H45           -5.2393     0.8056     2.0922 H       
  46 H46           -5.2183     1.2422    -2.1638 H       
  47 H47           -6.7216     0.7947    -1.3225 H       
  48 H48           -6.0611     2.4386    -1.1506 H       
@<TRIPOS>BOND
   1    1    2 2
   2    1   10 am
   3    1   13 1
   4    3    4 1
   5    3    7 1
   6    4    5 1
   7    4   24 1
   8    4   25 1
   9    5    6 1
  10    5   26 1
  11    5   27 1
  12    6    7 1
  13    7    8 1
  14    7   12 1
  15    8    9 1
  16    8   28 1
  17    8   29 1
  18    9   10 1
  19    9   30 1
  20    9   31 1
  21   10   11 1
  22   11   12 1
  23   11   32 1
  24   11   33 1
  25   12   34 1
  26   12   35 1
  27   13   14 ar
  28   13   18 ar
  29   14   15 ar
  30   14   36 1
  31   15   16 ar
  32   15   20 1
  33   16   17 ar
  34   16   19 1
  35   17   18 ar
  36   17   37 1
  37   18   38 1
  38   19   39 1
  39   20   21 1
  40   20   23 1
  41   20   22 1
  42   21   40 1
  43   21   41 1
  44   21   42 1
  45   22   43 1
  46   22   44 1
  47   22   45 1
  48   23   46 1
  49   23   47 1
  50   23   48 1

#	End of record

