#	Name: ASD00870007
#	Creating user name:	WinNT
#	Creation time:	15. 06. 2019 18:53

#	Modifying user name:	WinNT
#	Modification time:	15. 06. 2019 18:53

#	Program:	/corina/corina34_cracker 3.40 0067  02.08.2006

@<TRIPOS>MOLECULE
ASD00870007
  81   86    0    0    0
SMALL
NO_CHARGES


@<TRIPOS>ATOM
   1 N1            -0.0165     1.3677     0.0096 N.pl3   
   2 C2             0.0021    -0.0041     0.0020 C.ar    
   3 C3            -1.2091     2.2184     0.0309 C.3     
   4 C4             1.2782     1.7940    -0.0005 C.2     
   5 C5             1.3576    -0.3730    -0.0129 C.ar    
   6 N6            -0.9264    -0.9553     0.0062 N.ar    
   7 O7            -0.9053     3.5237    -0.5074 O.3     
   8 C8            -1.6533     2.4852     1.4862 C.3     
   9 N9             2.0828     0.7712    -0.0137 N.2     
  10 C10            1.6723    -1.7427    -0.0237 C.ar    
  11 C11           -0.5846    -2.2263    -0.0036 C.ar    
  12 C12           -1.9387     4.3950     0.0013 C.3     
  13 C13           -2.1443     3.9501     1.4663 C.3     
  14 O14           -2.7175     1.6054     1.8542 O.3     
  15 N15            0.6755    -2.6215    -0.0192 N.ar    
  16 N16            2.9896    -2.1664    -0.0390 N.pl3   
  17 C17           -1.4800     5.8536    -0.0530 C.3     
  18 O18           -3.5268     4.0196     1.8214 O.3     
  19 O19           -1.3371     6.2575    -1.4162 O.3     
  20 P20           -0.8677     7.7358    -1.8481 P.3     
  21 O21           -0.9434     7.8762    -3.4502 O.3     
  22 O22           -1.7583     8.7387    -1.2224 O.2     
  23 O23            0.6460     7.9827    -1.3586 O.3     
  24 P24           -0.9145     9.1250    -4.4661 P.3     
  25 O25           -1.5401     8.6801    -5.8813 O.3     
  26 O26           -1.7111    10.2378    -3.9026 O.2     
  27 O27            0.6064     9.6080    -4.6796 O.3     
  28 P28           -2.0719     9.4836    -7.1711 P.3     
  29 O29           -3.0410     8.5311    -8.0347 O.3     
  30 O30           -2.8214    10.6816    -6.7316 O.2     
  31 O31           -0.8191     9.9362    -8.0755 O.3     
  32 P32           -4.1038     8.7926    -9.2155 P.3     
  33 O33           -5.1183     7.5461    -9.3101 O.3     
  34 O34           -4.8660    10.0283    -8.9284 O.2     
  35 O35           -3.3229     8.9564   -10.6139 O.3     
  36 C36           -6.2427     7.5229   -10.1918 C.3     
  37 C37           -6.9907     6.1981   -10.0295 C.3     
  38 O38           -7.5768     6.1250    -8.7191 O.3     
  39 C39           -8.1416     6.1177   -11.0512 C.3     
  40 C40           -8.8196     5.4024    -8.8528 C.3     
  41 C41           -9.4097     5.9407   -10.1811 C.3     
  42 O42           -7.9663     4.9925   -11.9145 O.3     
  43 N43           -9.7139     5.7023    -7.7319 N.pl3   
  44 O44          -10.3007     4.9888   -10.7660 O.3     
  45 C45          -10.7373     4.9106    -7.2756 C.ar    
  46 C46           -9.6782     6.8164    -6.9473 C.2     
  47 C47          -11.3092     5.6017    -6.1944 C.ar    
  48 N48          -11.2403     3.7316    -7.6274 N.ar    
  49 N49          -10.6161     6.7563    -6.0470 N.2     
  50 C50          -12.3961     5.0095    -5.5286 C.ar    
  51 C51          -12.2599     3.2155    -6.9746 C.ar    
  52 N52          -12.8300     3.8271    -5.9522 N.ar    
  53 N53          -13.0000     5.6428    -4.4565 N.pl3   
  54 H54           -2.0163     1.7531    -0.5347 H       
  55 H55            1.5903     2.8279     0.0017 H       
  56 H56           -0.8110     2.3740     2.1691 H       
  57 H57           -1.3638    -2.9741     0.0002 H       
  58 H58           -2.8586     4.2658    -0.5689 H       
  59 H59           -1.5448     4.5630     2.1393 H       
  60 H60           -3.0355     1.7296     2.7590 H       
  61 H61            3.7085    -1.5152    -0.0424 H       
  62 H62            3.1941    -3.1146    -0.0463 H       
  63 H63           -2.2202     6.4857     0.4376 H       
  64 H64           -0.5221     5.9525     0.4576 H       
  65 H65           -3.7211     3.6949     2.7113 H       
  66 H66            1.2860     7.3602    -1.7302 H       
  67 H67            1.1872     8.9277    -5.0471 H       
  68 H68           -0.2816     9.2004    -8.3993 H       
  69 H69           -2.8011     8.1823   -10.8660 H       
  70 H70           -6.9110     8.3494    -9.9502 H       
  71 H71           -5.8991     7.6224   -11.2214 H       
  72 H72           -6.3038     5.3645   -10.1754 H       
  73 H73           -8.2022     7.0388   -11.6309 H       
  74 H74           -8.6349     4.3301    -8.9187 H       
  75 H75           -9.9109     6.8960   -10.0251 H       
  76 H76           -8.6628     4.8935   -12.5779 H       
  77 H77          -10.6262     5.2408   -11.6410 H       
  78 H78           -8.9751     7.6289    -7.0564 H       
  79 H79          -12.6445     2.2556    -7.2862 H       
  80 H80          -12.6739     6.5056    -4.1565 H       
  81 H81          -13.7494     5.2238    -4.0052 H       
@<TRIPOS>BOND
   1    1    2 1
   2    1    4 1
   3    1    3 1
   4    2    5 ar
   5    2    6 ar
   6    3    7 1
   7    3    8 1
   8    3   54 1
   9    4    9 2
  10    4   55 1
  11    5   10 ar
  12    5    9 1
  13    6   11 ar
  14    7   12 1
  15    8   13 1
  16    8   14 1
  17    8   56 1
  18   10   15 ar
  19   10   16 1
  20   11   15 ar
  21   11   57 1
  22   12   17 1
  23   12   13 1
  24   12   58 1
  25   13   18 1
  26   13   59 1
  27   14   60 1
  28   16   61 1
  29   16   62 1
  30   17   19 1
  31   17   63 1
  32   17   64 1
  33   18   65 1
  34   19   20 1
  35   20   21 1
  36   20   22 2
  37   20   23 1
  38   21   24 1
  39   23   66 1
  40   24   25 1
  41   24   26 2
  42   24   27 1
  43   25   28 1
  44   27   67 1
  45   28   29 1
  46   28   30 2
  47   28   31 1
  48   29   32 1
  49   31   68 1
  50   32   33 1
  51   32   34 2
  52   32   35 1
  53   33   36 1
  54   35   69 1
  55   36   37 1
  56   36   70 1
  57   36   71 1
  58   37   38 1
  59   37   39 1
  60   37   72 1
  61   38   40 1
  62   39   41 1
  63   39   42 1
  64   39   73 1
  65   40   43 1
  66   40   41 1
  67   40   74 1
  68   41   44 1
  69   41   75 1
  70   42   76 1
  71   43   45 1
  72   43   46 1
  73   44   77 1
  74   45   47 ar
  75   45   48 ar
  76   46   49 2
  77   46   78 1
  78   47   50 ar
  79   47   49 1
  80   48   51 ar
  81   50   52 ar
  82   50   53 1
  83   51   52 ar
  84   51   79 1
  85   53   80 1
  86   53   81 1

#	End of record

