#	Name: ASD02039384
#	Creating user name:	WinNT
#	Creation time:	15. 06. 2019 20:18

#	Modifying user name:	WinNT
#	Modification time:	15. 06. 2019 20:18

#	Program:	/corina/corina34_cracker 3.40 0067  02.08.2006

@<TRIPOS>MOLECULE
ASD02039384
  48   51    0    0    0
SMALL
NO_CHARGES


@<TRIPOS>ATOM
   1 C1            -0.1168     0.6709    -0.9223 C.ar    
   2 C2             0.2087    -0.6485    -1.1796 C.ar    
   3 C3            -0.7585    -1.5309    -1.6251 C.ar    
   4 C4            -2.3928     0.2300    -1.5452 C.ar    
   5 C5            -1.4116     1.1141    -1.1028 C.ar    
   6 C6            -3.7861     0.7009    -1.7414 C.ar    
   7 C7             0.9436     1.6258    -0.4376 C.3     
   8 N8             1.6850     2.1554    -1.5847 N.am    
   9 C9             1.1579     3.2996    -2.3326 C.3     
  10 C10            2.8521     1.5901    -1.9521 C.2     
  11 C11            3.3267     0.3722    -1.2726 C.2     
  12 C12            4.4196    -0.3687    -1.6156 C.2     
  13 N13            2.7596    -0.2140    -0.1873 N.2     
  14 C14            3.4531    -1.2682     0.1323 C.2     
  15 N15            4.4915    -1.3940    -0.7345 N.pl3   
  16 O16            3.5134     2.0855    -2.8446 O.2     
  17 C17            5.5066    -2.4502    -0.7191 C.3     
  18 C18           -4.4642     0.4340    -2.9350 C.ar    
  19 C19           -2.0573    -1.0976    -1.8156 C.ar    
  20 C20           -4.4404     1.4102    -0.7378 C.ar    
  21 N21           -5.6781     1.8293    -0.9094 N.ar    
  22 C22           -6.3430     1.5975    -2.0266 C.ar    
  23 C23           -5.7614     0.8935    -3.0699 C.ar    
  24 F24           -7.6102     2.0485    -2.1527 F       
  25 C25            2.1574     4.4605    -2.4677 C.3     
  26 C26            1.6518     4.6241    -3.9108 C.3     
  27 C27            1.2599     3.1380    -3.8585 C.3     
  28 F28           -3.0018    -1.9596    -2.2516 F       
  29 H29            1.2223    -0.9909    -1.0325 H       
  30 H30           -0.4987    -2.5600    -1.8249 H       
  31 H31           -1.6656     2.1424    -0.8921 H       
  32 H32            0.4732     2.4478     0.1019 H       
  33 H33            1.6294     1.1003     0.2270 H       
  34 H34            0.1710     3.6107    -1.9901 H       
  35 H35            5.0975    -0.1747    -2.4337 H       
  36 H36            3.2393    -1.9336     0.9556 H       
  37 H37            5.1716    -3.2852    -1.3345 H       
  38 H38            6.4436    -2.0595    -1.1158 H       
  39 H39            5.6599    -2.7919     0.3046 H       
  40 H40           -3.9865    -0.1169    -3.7317 H       
  41 H41           -3.9289     1.6187     0.1903 H       
  42 H42           -6.3140     0.7097    -3.9795 H       
  43 H43            1.9281     5.3110    -1.8257 H       
  44 H44            3.1999     4.1489    -2.4030 H       
  45 H45            0.7995     5.2975    -4.0012 H       
  46 H46            2.4427     4.8420    -4.6285 H       
  47 H47            2.0570     2.4648    -4.1740 H       
  48 H48            0.3060     2.9208    -4.3392 H       
@<TRIPOS>BOND
   1    1    2 ar
   2    1    7 1
   3    1    5 ar
   4    2    3 ar
   5    2   29 1
   6    3   19 ar
   7    3   30 1
   8    4    5 ar
   9    4    6 1
  10    4   19 ar
  11    5   31 1
  12    6   18 ar
  13    6   20 ar
  14    7    8 1
  15    7   32 1
  16    7   33 1
  17    8    9 1
  18    8   10 am
  19    9   25 1
  20    9   27 1
  21    9   34 1
  22   10   11 1
  23   10   16 2
  24   11   12 2
  25   11   13 1
  26   12   15 1
  27   12   35 1
  28   13   14 2
  29   14   15 1
  30   14   36 1
  31   15   17 1
  32   17   37 1
  33   17   38 1
  34   17   39 1
  35   18   23 ar
  36   18   40 1
  37   19   28 1
  38   20   21 ar
  39   20   41 1
  40   21   22 ar
  41   22   23 ar
  42   22   24 1
  43   23   42 1
  44   25   26 1
  45   25   43 1
  46   25   44 1
  47   26   27 1
  48   26   45 1
  49   26   46 1
  50   27   47 1
  51   27   48 1

#	End of record

