#	Name: ASD01815632
#	Creating user name:	WinNT
#	Creation time:	15. 06. 2019 19:33

#	Modifying user name:	WinNT
#	Modification time:	15. 06. 2019 19:33

#	Program:	/corina/corina34_cracker 3.40 0067  02.08.2006

@<TRIPOS>MOLECULE
ASD01815632
  34   36    0    0    0
SMALL
NO_CHARGES


@<TRIPOS>ATOM
   1 C1             0.1032     1.4770     0.3872 C.ar    
   2 C2             0.0844     0.0898     0.3792 C.ar    
   3 C3             1.2531    -0.6296     0.2387 C.ar    
   4 C4             2.4694     0.0388     0.1026 C.ar    
   5 C5             2.4837     1.4435     0.1108 C.ar    
   6 C6             1.2936     2.1570     0.2541 C.ar    
   7 N7             3.6450    -0.6678    -0.0380 N.pl3   
   8 C8             4.8372    -0.0734    -0.1710 C.2     
   9 C9             4.9778     1.3000    -0.1776 C.2     
  10 C10            3.7766     2.1382    -0.0341 C.2     
  11 O11            3.8474     3.3547    -0.0341 O.2     
  12 C12            6.3046     1.9146    -0.3256 C.2     
  13 O13            7.2900     1.2125    -0.4434 O.2     
  14 O14            6.4289     3.2569    -0.3305 O.3     
  15 C15            3.5871    -2.1316    -0.0416 C.3     
  16 C16            3.4443    -2.6253    -1.4583 C.ar    
  17 C17            4.5640    -2.7672    -2.2560 C.ar    
  18 C18            4.4337    -3.2210    -3.5571 C.ar    
  19 C19            3.1792    -3.5327    -4.0587 C.ar    
  20 C20            2.0599    -3.3894    -3.2573 C.ar    
  21 C21            2.1940    -2.9411    -1.9568 C.ar    
  22 F22            1.2194    -1.9802     0.2336 F       
  23 F23            5.5276    -3.3596    -4.3377 F       
  24 F24            3.0496    -3.9753    -5.3285 F       
  25 H25           -0.8205     2.0264     0.4939 H       
  26 H26           -0.8551    -0.4324     0.4843 H       
  27 H27            1.3055     3.2369     0.2599 H       
  28 H28            5.7184    -0.6888    -0.2763 H       
  29 H29            7.3216     3.6148    -0.4304 H       
  30 H30            4.5031    -2.5325     0.3923 H       
  31 H31            2.7312    -2.4628     0.5466 H       
  32 H32            5.5405    -2.5238    -1.8643 H       
  33 H33            1.0822    -3.6318    -3.6468 H       
  34 H34            1.3202    -2.8295    -1.3319 H       
@<TRIPOS>BOND
   1    1    2 ar
   2    1    6 ar
   3    1   25 1
   4    2    3 ar
   5    2   26 1
   6    3    4 ar
   7    3   22 1
   8    4    5 ar
   9    4    7 1
  10    5    6 ar
  11    5   10 1
  12    6   27 1
  13    7    8 1
  14    7   15 1
  15    8    9 2
  16    8   28 1
  17    9   10 1
  18    9   12 1
  19   10   11 2
  20   12   13 2
  21   12   14 1
  22   14   29 1
  23   15   16 1
  24   15   30 1
  25   15   31 1
  26   16   17 ar
  27   16   21 ar
  28   17   18 ar
  29   17   32 1
  30   18   19 ar
  31   18   23 1
  32   19   20 ar
  33   19   24 1
  34   20   21 ar
  35   20   33 1
  36   21   34 1

#	End of record

