#	Name: ASD01914258
#	Creating user name:	WinNT
#	Creation time:	15. 06. 2019 20:03

#	Modifying user name:	WinNT
#	Modification time:	15. 06. 2019 20:03

#	Program:	/corina/corina34_cracker 3.40 0067  02.08.2006

@<TRIPOS>MOLECULE
ASD01914258
  34   36    0    0    0
SMALL
NO_CHARGES


@<TRIPOS>ATOM
   1 N1            -0.0154     1.2833     0.0091 N.2     
   2 N2             0.0021    -0.0041     0.0020 N.pl3   
   3 N3             1.1958    -0.4863    -0.0120 N.2     
   4 C4             2.0615     0.5146    -0.0149 C.ar    
   5 C5             1.2309     1.7280    -0.0004 C.ar    
   6 C6             1.8655     2.9826    -0.0001 C.ar    
   7 C7             3.2225     3.0458    -0.0131 C.ar    
   8 C8             4.0106     1.8944    -0.0273 C.ar    
   9 C9             3.4606     0.6522    -0.0282 C.ar    
  10 C10           -1.2068    -0.8316     0.0099 C.3     
  11 C11           -1.6420    -1.1124    -1.4298 C.3     
  12 C12           -2.8567    -1.9438    -1.4219 C.1     
  13 C13           -3.8254    -2.6070    -1.4156 C.1     
  14 C14           -5.0071    -3.4158    -1.4079 C.ar    
  15 C15           -5.5905    -3.8008    -2.6156 C.ar    
  16 C16           -6.7318    -4.5823    -2.5914 C.ar    
  17 C17           -7.2545    -4.9545    -1.3604 C.ar    
  18 C18           -6.6255    -4.5377    -0.2018 C.ar    
  19 N19           -5.5363    -3.7983    -0.2515 N.ar    
  20 C20            4.3435    -0.5691    -0.0426 C.3     
  21 H21            1.2787     3.8892     0.0100 H       
  22 H22            3.7040     4.0126    -0.0128 H       
  23 H23            5.0860     1.9933    -0.0380 H       
  24 H24           -0.9989    -1.7738     0.5170 H       
  25 H25           -2.0042    -0.3049     0.5343 H       
  26 H26           -1.8499    -0.1702    -1.9369 H       
  27 H27           -0.8446    -1.6390    -1.9542 H       
  28 H28           -5.1573    -3.4928    -3.5558 H       
  29 H29           -7.2059    -4.8955    -3.5099 H       
  30 H30           -8.1446    -5.5639    -1.3082 H       
  31 H31           -7.0304    -4.8257     0.7571 H       
  32 H32            4.5461    -0.8588    -1.0736 H       
  33 H33            5.2826    -0.3444     0.4630 H       
  34 H34            3.8402    -1.3873     0.4725 H       
@<TRIPOS>BOND
   1    1    2 1
   2    1    5 2
   3    2    3 1
   4    2   10 1
   5    3    4 2
   6    4    5 ar
   7    4    9 ar
   8    5    6 ar
   9    6    7 ar
  10    6   21 1
  11    7    8 ar
  12    7   22 1
  13    8    9 ar
  14    8   23 1
  15    9   20 1
  16   10   11 1
  17   10   24 1
  18   10   25 1
  19   11   12 1
  20   11   26 1
  21   11   27 1
  22   12   13 3
  23   13   14 1
  24   14   15 ar
  25   14   19 ar
  26   15   16 ar
  27   15   28 1
  28   16   17 ar
  29   16   29 1
  30   17   18 ar
  31   17   30 1
  32   18   19 ar
  33   18   31 1
  34   20   32 1
  35   20   33 1
  36   20   34 1

#	End of record

