#	Name: ASD01948336
#	Creating user name:	WinNT
#	Creation time:	15. 06. 2019 20:14

#	Modifying user name:	WinNT
#	Modification time:	15. 06. 2019 20:14

#	Program:	/corina/corina34_cracker 3.40 0067  02.08.2006

@<TRIPOS>MOLECULE
ASD01948336
  49   51    0    0    0
SMALL
NO_CHARGES


@<TRIPOS>ATOM
   1 C1             0.4206     1.9369    -0.0521 C.2     
   2 N2             0.5629     0.5981    -0.2707 N.am    
   3 C3             1.7809     0.0306    -0.3412 C.2     
   4 C4             2.8022     2.1707     0.0312 C.2     
   5 C5             1.5049     2.7330     0.0999 C.2     
   6 C6             3.3395     4.1918    -1.8146 C.ar    
   7 C7             4.1625     4.0179    -0.7105 C.ar    
   8 N8             3.9237     2.9685     0.1837 N.pl3   
   9 C9             3.5777     5.2287    -2.6963 C.ar    
  10 C10            4.6355     6.0935    -2.4808 C.ar    
  11 C11            5.4585     5.9244    -1.3811 C.ar    
  12 C12            5.2257     4.8891    -0.4951 C.ar    
  13 N13            1.3435     4.1099     0.3250 N.am    
  14 S14           -0.1760     4.7634     0.4045 S.o2    
  15 C15           -0.9060     4.0316     1.8952 C.3     
  16 O16            1.8816    -1.1711    -0.5376 O.2     
  17 C17           -0.6306    -0.2362    -0.4309 C.3     
  18 F18            6.0289     4.7237     0.5785 F       
  19 Br19           4.9577     7.5100    -3.6914 Br      
  20 O20            0.0499     6.1539     0.5910 O.2     
  21 O21           -0.8282     4.2769    -0.7605 O.2     
  22 C22            2.9318     0.8101    -0.1913 C.2     
  23 C23            4.2971     0.1771    -0.2699 C.3     
  24 C24           -2.3241     4.4643     2.2729 C.3     
  25 C25           -2.0765     3.0645     1.7069 C.3     
  26 C26            0.0722     3.7439     3.0360 C.3     
  27 C27            0.6729     5.0589     3.5366 C.3     
  28 O28            1.6607     4.7831     4.5317 O.3     
  29 H29           -0.5686     2.3676    -0.0040 H       
  30 H30            2.5161     3.5145    -1.9868 H       
  31 H31            4.5437     2.7999     0.9103 H       
  32 H32            2.9372     5.3638    -3.5554 H       
  33 H33            6.2837     6.6012    -1.2153 H       
  34 H34            2.1221     4.6781     0.4338 H       
  35 H35           -0.9076    -0.2756    -1.4844 H       
  36 H36           -0.4203    -1.2439    -0.0727 H       
  37 H37           -1.4519     0.1901     0.1450 H       
  38 H38            4.1917    -0.9042    -0.3587 H       
  39 H39            4.8271     0.5631    -1.1406 H       
  40 H40            4.8602     0.4143     0.6328 H       
  41 H41           -2.5603     4.5436     3.3340 H       
  42 H42           -2.8184     5.1887     1.6256 H       
  43 H43           -2.4080     2.8681     0.6873 H       
  44 H44           -2.1499     2.2229     2.3957 H       
  45 H45           -0.4564     3.2517     3.8524 H       
  46 H46            0.8697     3.0941     2.6755 H       
  47 H47            1.1347     5.5881     2.7031 H       
  48 H48           -0.1145     5.6771     3.9679 H       
  49 H49            2.0845     5.5728     4.8947 H       
@<TRIPOS>BOND
   1    1    2 1
   2    1    5 2
   3    1   29 1
   4    2    3 am
   5    2   17 1
   6    3   22 1
   7    3   16 2
   8    4    5 1
   9    4    8 1
  10    4   22 2
  11    5   13 1
  12    6    7 ar
  13    6    9 ar
  14    6   30 1
  15    7    8 1
  16    7   12 ar
  17    8   31 1
  18    9   10 ar
  19    9   32 1
  20   10   11 ar
  21   10   19 1
  22   11   12 ar
  23   11   33 1
  24   12   18 1
  25   13   14 am
  26   13   34 1
  27   14   15 1
  28   14   20 2
  29   14   21 2
  30   15   24 1
  31   15   26 1
  32   15   25 1
  33   17   35 1
  34   17   36 1
  35   17   37 1
  36   22   23 1
  37   23   38 1
  38   23   39 1
  39   23   40 1
  40   24   25 1
  41   24   41 1
  42   24   42 1
  43   25   43 1
  44   25   44 1
  45   26   27 1
  46   26   45 1
  47   26   46 1
  48   27   28 1
  49   27   47 1
  50   27   48 1
  51   28   49 1

#	End of record

