#	Name: ASD03331736
#	Creating user name:	WinNT
#	Creation time:	15. 06. 2019 20:39

#	Modifying user name:	WinNT
#	Modification time:	15. 06. 2019 20:39

#	Program:	/corina/corina34_cracker 3.40 0067  02.08.2006

@<TRIPOS>MOLECULE
ASD03331736
  54   56    0    0    0
SMALL
NO_CHARGES


@<TRIPOS>ATOM
   1 C1            -0.1782     0.6228    -1.3753 C.2     
   2 N2            -0.2959    -0.7113    -1.1449 N.pl3   
   3 C3            -1.5956    -0.9613    -0.8372 C.2     
   4 C4            -2.2545     0.2236    -0.8805 C.2     
   5 N5            -1.3565     1.1806    -1.2088 N.2     
   6 C6             0.7375    -1.7495    -1.1960 C.3     
   7 C7             0.2068    -2.9900    -0.4660 C.3     
   8 N8            -1.1344    -3.3252    -0.9647 N.3     
   9 C9            -2.1306    -2.3339    -0.5199 C.3     
  10 C10           -1.5236    -4.6819    -0.5575 C.3     
  11 C11           -3.6885     0.4316    -0.6123 C.2     
  12 N12           -4.2162     1.6693    -0.6912 N.am    
  13 O13           -4.3958    -0.5135    -0.3198 O.2     
  14 C14           -5.6418     1.8761    -0.4246 C.3     
  15 C15           -6.1109     3.1187    -1.1367 C.2     
  16 C16           -5.8608     2.0378     1.0810 C.3     
  17 C17           -5.5046     0.7304     1.7915 C.3     
  18 C18           -4.9693     3.1640     1.6081 C.3     
  19 N19           -7.4200     3.2846    -1.4109 N.am    
  20 O20           -5.3104     3.9693    -1.4631 O.2     
  21 C21           -7.8629     4.4372    -2.1993 C.3     
  22 C22            1.0680     1.3293    -1.7451 C.ar    
  23 C23            2.1593     0.6134    -2.2378 C.ar    
  24 C24            3.3187     1.2781    -2.5809 C.ar    
  25 C25            3.4005     2.6516    -2.4368 C.ar    
  26 C26            2.3219     3.3673    -1.9483 C.ar    
  27 C27            1.1547     2.7150    -1.6080 C.ar    
  28 H28            0.9566    -1.9993    -2.2341 H       
  29 H29            1.6423    -1.3923    -0.7042 H       
  30 H30            0.8793    -3.8295    -0.6423 H       
  31 H31            0.1553    -2.7867     0.6037 H       
  32 H32           -2.2899    -2.4282     0.5543 H       
  33 H33           -3.0707    -2.4939    -1.0479 H       
  34 H34           -1.4611    -4.7677     0.5273 H       
  35 H35           -2.5464    -4.8784    -0.8792 H       
  36 H36           -0.8522    -5.4063    -1.0186 H       
  37 H37           -3.6520     2.4231    -0.9244 H       
  38 H38           -6.2071     1.0162    -0.7837 H       
  39 H39           -6.9058     2.2820     1.2720 H       
  40 H40           -4.4596     0.4861     1.6005 H       
  41 H41           -5.6607     0.8455     2.8641 H       
  42 H42           -6.1397    -0.0719     1.4160 H       
  43 H43           -3.9313     2.9583     1.3466 H       
  44 H44           -5.2761     4.1096     1.1611 H       
  45 H45           -5.0655     3.2263     2.6921 H       
  46 H46           -8.0689     2.6408    -1.0862 H       
  47 H47           -7.5826     5.3573    -1.6867 H       
  48 H48           -7.3897     4.4094    -3.1808 H       
  49 H49           -8.9460     4.4023    -2.3169 H       
  50 H50            2.0969    -0.4590    -2.3501 H       
  51 H51            4.1642     0.7251    -2.9624 H       
  52 H52            4.3103     3.1674    -2.7064 H       
  53 H53            2.3921     4.4393    -1.8377 H       
  54 H54            0.3133     3.2748    -1.2271 H       
@<TRIPOS>BOND
   1    1    2 1
   2    1   22 1
   3    1    5 2
   4    2    3 1
   5    2    6 1
   6    3    4 2
   7    3    9 1
   8    4    5 1
   9    4   11 1
  10    6    7 1
  11    6   28 1
  12    6   29 1
  13    7    8 1
  14    7   30 1
  15    7   31 1
  16    8    9 1
  17    8   10 1
  18    9   32 1
  19    9   33 1
  20   10   34 1
  21   10   35 1
  22   10   36 1
  23   11   12 am
  24   11   13 2
  25   12   14 1
  26   12   37 1
  27   14   15 1
  28   14   16 1
  29   14   38 1
  30   15   19 am
  31   15   20 2
  32   16   17 1
  33   16   18 1
  34   16   39 1
  35   17   40 1
  36   17   41 1
  37   17   42 1
  38   18   43 1
  39   18   44 1
  40   18   45 1
  41   19   21 1
  42   19   46 1
  43   21   47 1
  44   21   48 1
  45   21   49 1
  46   22   23 ar
  47   22   27 ar
  48   23   24 ar
  49   23   50 1
  50   24   25 ar
  51   24   51 1
  52   25   26 ar
  53   25   52 1
  54   26   27 ar
  55   26   53 1
  56   27   54 1

#	End of record

