#	Name: ASD07930701
#	Creating user name:	WinNT
#	Creation time:	15. 06. 2019 21:13

#	Modifying user name:	WinNT
#	Modification time:	15. 06. 2019 21:13

#	Program:	/corina/corina34_cracker 3.40 0067  02.08.2006

@<TRIPOS>MOLECULE
ASD07930701
  43   45    0    0    0
SMALL
NO_CHARGES


@<TRIPOS>ATOM
   1 C1            -0.0820     1.4529     0.2405 C.3     
   2 N2             0.6328    -0.2574    -2.0993 N.2     
   3 N3            -0.9650    -1.7176    -1.2183 N.pl3   
   4 C4            -0.9005    -2.8248    -0.2586 C.3     
   5 C5            -1.1343    -2.2812     1.1576 C.3     
   6 S6             0.0966    -0.9793     1.4802 S.o2    
   7 N7            -0.0356    -0.0075     0.1332 N.am    
   8 C8            -0.0999    -0.6496    -1.0952 C.2     
   9 C9             0.4781    -3.4844    -0.3316 C.3     
  10 O10           -0.3153    -0.1521     2.5597 O.2     
  11 O11            1.4153    -1.5046     1.4141 O.2     
  12 C12           -1.9634    -3.8404    -0.5898 C.2     
  13 C13           -2.1441    -4.9523     0.1313 C.2     
  14 C14           -2.8262    -3.6894    -1.6559 C.2     
  15 C15           -3.7148    -4.6911    -1.8080 C.2     
  16 S16           -3.4660    -5.8926    -0.5478 S.3     
  17 C17           -4.7422    -4.7667    -2.8680 C.ar    
  18 C18           -5.6102    -5.8571    -2.9250 C.ar    
  19 C19           -6.5705    -5.9209    -3.9207 C.ar    
  20 C20           -6.6676    -4.9020    -4.8587 C.ar    
  21 C21           -5.8079    -3.8203    -4.8035 C.ar    
  22 C22           -4.8512    -3.7439    -3.8123 C.ar    
  23 O23           -7.4181    -6.9816    -3.9799 O.3     
  24 Cl24          -1.2134    -5.4003     1.5265 Cl      
  25 C25           -8.3840    -6.9822    -5.0330 C.3     
  26 H26            0.9308     1.8530     0.1940 H       
  27 H27           -0.6713     1.8590    -0.5816 H       
  28 H28           -0.5402     1.7331     1.1890 H       
  29 H29            1.2358     0.4951    -1.9949 H       
  30 H30           -1.6121    -1.7379    -1.9406 H       
  31 H31           -2.1385    -1.8635     1.2297 H       
  32 H32           -1.0174    -3.0856     1.8839 H       
  33 H33            1.2459    -2.7493    -0.0899 H       
  34 H34            0.5255    -4.3071     0.3818 H       
  35 H35            0.6452    -3.8666    -1.3386 H       
  36 H36           -2.7923    -2.8355    -2.3163 H       
  37 H37           -5.5332    -6.6495    -2.1952 H       
  38 H38           -7.4171    -4.9546    -5.6346 H       
  39 H39           -5.8881    -3.0309    -5.5362 H       
  40 H40           -4.1815    -2.8976    -3.7718 H       
  41 H41           -9.0214    -6.1027    -4.9420 H       
  42 H42           -7.8724    -6.9621    -5.9952 H       
  43 H43           -8.9950    -7.8823    -4.9651 H       
@<TRIPOS>BOND
   1    1    7 1
   2    1   26 1
   3    1   27 1
   4    1   28 1
   5    2    8 2
   6    2   29 1
   7    3    4 1
   8    3    8 1
   9    3   30 1
  10    4    5 1
  11    4    9 1
  12    4   12 1
  13    5    6 1
  14    5   31 1
  15    5   32 1
  16    6    7 am
  17    6   10 2
  18    6   11 2
  19    7    8 1
  20    9   33 1
  21    9   34 1
  22    9   35 1
  23   12   14 1
  24   12   13 2
  25   13   24 1
  26   13   16 1
  27   14   15 2
  28   14   36 1
  29   15   16 1
  30   15   17 1
  31   17   18 ar
  32   17   22 ar
  33   18   19 ar
  34   18   37 1
  35   19   20 ar
  36   19   23 1
  37   20   21 ar
  38   20   38 1
  39   21   22 ar
  40   21   39 1
  41   22   40 1
  42   23   25 1
  43   25   41 1
  44   25   42 1
  45   25   43 1

#	End of record

