#	Name: ASD04910401
#	Creating user name:	WinNT
#	Creation time:	15. 06. 2019 20:55

#	Modifying user name:	WinNT
#	Modification time:	15. 06. 2019 20:55

#	Program:	/corina/corina34_cracker 3.40 0067  02.08.2006

@<TRIPOS>MOLECULE
ASD04910401
  57   59    0    0    0
SMALL
NO_CHARGES


@<TRIPOS>ATOM
   1 C1            -2.4926     0.5491     0.9424 C.2     
   2 C2            -1.9592    -0.8232     0.8217 C.ar    
   3 C3            -0.9490    -1.1044    -0.1002 C.ar    
   4 C4            -0.4552    -2.3880    -0.2074 C.ar    
   5 C5            -0.9591    -3.3958     0.5957 C.ar    
   6 C6            -1.9606    -3.1242     1.5111 C.ar    
   7 C7            -2.4591    -1.8437     1.6330 C.ar    
   8 O8            -2.0522     1.4359     0.2387 O.2     
   9 O9            -3.4711     0.8159     1.8289 O.3     
  10 C10           -0.4150    -4.7957     0.4726 C.3     
  11 C11            0.1097    -5.2604     1.8326 C.3     
  12 C12            1.3868    -4.4912     2.1765 C.3     
  13 C13            1.0637    -3.0020     2.3143 C.3     
  14 N14           -1.4809    -5.6965     0.0268 N.pl3   
  15 C15            0.1634    -7.2680    -0.7958 C.ar    
  16 C16           -1.1608    -6.8768    -0.6518 C.ar    
  17 C17           -2.1669    -7.6756    -1.1915 C.ar    
  18 C18           -1.8033    -8.8348    -1.8540 C.ar    
  19 C19           -0.4574    -9.1615    -1.9585 C.ar    
  20 N20            0.4719    -8.3798    -1.4339 N.ar    
  21 C21           -0.9026   -11.1822    -3.2951 C.2     
  22 N22           -0.1852   -12.1571    -3.7832 N.2     
  23 C23            1.1012   -11.9718    -3.4515 C.2     
  24 C24            1.1905   -10.8390    -2.7294 C.2     
  25 N25           -0.0798   -10.3325    -2.6265 N.pl3   
  26 C26            2.2484   -12.8758    -3.8227 C.3     
  27 F27            1.7881   -13.8895    -4.6699 F       
  28 F28            3.2350   -12.1319    -4.4788 F       
  29 F29            2.7872   -13.4452    -2.6639 F       
  30 C30            1.9571    -5.0136     3.4966 C.3     
  31 C31            2.4167    -4.6886     1.0624 C.3     
  32 C32           -3.9467     2.1863     1.8932 C.3     
  33 H33           -0.5553    -0.3189    -0.7282 H       
  34 H34            0.3262    -2.6069    -0.9200 H       
  35 H35           -2.3499    -3.9156     2.1344 H       
  36 H36           -3.2374    -1.6321     2.3512 H       
  37 H37            0.3978    -4.8071    -0.2536 H       
  38 H38           -0.6446    -5.0723     2.5967 H       
  39 H39            0.3280    -6.3276     1.7925 H       
  40 H40            0.2056    -2.8760     2.9744 H       
  41 H41            1.9243    -2.4808     2.7336 H       
  42 H42            0.8311    -2.5884     1.3330 H       
  43 H43           -2.4087    -5.4742     0.2021 H       
  44 H44            0.9497    -6.6525    -0.3845 H       
  45 H45           -3.2058    -7.3968    -1.0947 H       
  46 H46           -2.5568    -9.4777    -2.2843 H       
  47 H47           -1.9706   -11.0676    -3.4078 H       
  48 H48            2.0898   -10.4113    -2.3114 H       
  49 H49            2.1872    -6.0745     3.3984 H       
  50 H50            2.8669    -4.4656     3.7416 H       
  51 H51            1.2234    -4.8729     4.2903 H       
  52 H52            2.0644    -4.2039     0.1518 H       
  53 H53            3.3671    -4.2483     1.3639 H       
  54 H54            2.5523    -5.7542     0.8776 H       
  55 H55           -3.1209     2.8453     2.1614 H       
  56 H56           -4.3442     2.4789     0.9214 H       
  57 H57           -4.7320     2.2634     2.6452 H       
@<TRIPOS>BOND
   1    1    2 1
   2    1    8 2
   3    1    9 1
   4    2    3 ar
   5    2    7 ar
   6    3    4 ar
   7    3   33 1
   8    4    5 ar
   9    4   34 1
  10    5    6 ar
  11    5   10 1
  12    6    7 ar
  13    6   35 1
  14    7   36 1
  15    9   32 1
  16   10   11 1
  17   10   14 1
  18   10   37 1
  19   11   12 1
  20   11   38 1
  21   11   39 1
  22   12   13 1
  23   12   30 1
  24   12   31 1
  25   13   40 1
  26   13   41 1
  27   13   42 1
  28   14   16 1
  29   14   43 1
  30   15   16 ar
  31   15   20 ar
  32   15   44 1
  33   16   17 ar
  34   17   18 ar
  35   17   45 1
  36   18   19 ar
  37   18   46 1
  38   19   20 ar
  39   19   25 1
  40   21   22 2
  41   21   25 1
  42   21   47 1
  43   22   23 1
  44   23   24 2
  45   23   26 1
  46   24   25 1
  47   24   48 1
  48   26   27 1
  49   26   28 1
  50   26   29 1
  51   30   49 1
  52   30   50 1
  53   30   51 1
  54   31   52 1
  55   31   53 1
  56   31   54 1
  57   32   55 1
  58   32   56 1
  59   32   57 1

#	End of record

