#	Name: ASD01420040
#	Creating user name:	WinNT
#	Creation time:	15. 06. 2019 19:20

#	Modifying user name:	WinNT
#	Modification time:	15. 06. 2019 19:20

#	Program:	/corina/corina34_cracker 3.40 0067  02.08.2006

@<TRIPOS>MOLECULE
ASD01420040
  41   43    0    0    0
SMALL
NO_CHARGES


@<TRIPOS>ATOM
   1 C1            -0.0180     1.4763     0.0102 C.3     
   2 N2             0.0021    -0.0041     0.0020 N.3     
   3 C3             1.2743    -0.3381    -0.6776 C.3     
   4 C4             2.1986     0.8277    -0.4096 C.ar    
   5 C5             3.5760     0.9560    -0.5065 C.ar    
   6 C6             4.1819     2.1641    -0.1939 C.ar    
   7 C7             3.4120     3.2367     0.2134 C.ar    
   8 C8             2.0390     3.1069     0.3094 C.ar    
   9 C9             1.4319     1.9046    -0.0014 C.ar    
  10 O10            4.3312    -0.1005    -0.9067 O.3     
  11 C11            5.7435     0.1037    -0.9837 C.3     
  12 C12            6.4209    -1.1870    -1.4484 C.3     
  13 C13            7.9329    -0.9683    -1.5308 C.3     
  14 N14            8.5833    -2.2076    -1.9770 N.3     
  15 C15            9.9993    -1.9742    -2.2958 C.3     
  16 C16           10.6516    -3.2997    -2.6979 C.3     
  17 O17            9.9344    -3.8633    -3.7994 O.3     
  18 C18            8.5519    -4.1044    -3.5234 C.3     
  19 C19            7.8784    -2.7871    -3.1297 C.3     
  20 H20           -0.5283     1.8508    -0.8772 H       
  21 H21           -0.5112     1.8412     0.9111 H       
  22 H22           -0.0131    -0.3711     0.9418 H       
  23 H23            1.6938    -1.2544    -0.2623 H       
  24 H24            1.1105    -0.4501    -1.7494 H       
  25 H25            5.2545     2.2660    -0.2684 H       
  26 H26            3.8833     4.1773     0.4572 H       
  27 H27            1.4394     3.9466     0.6283 H       
  28 H28            5.9569     0.9023    -1.6943 H       
  29 H29            6.1247     0.3806    -0.0008 H       
  30 H30            6.2074    -1.9855    -0.7378 H       
  31 H31            6.0397    -1.4639    -2.4313 H       
  32 H32            8.1464    -0.1698    -2.2414 H       
  33 H33            8.3141    -0.6915    -0.5479 H       
  34 H34           10.0747    -1.2664    -3.1213 H       
  35 H35           10.5075    -1.5692    -1.4207 H       
  36 H36           11.6866    -3.1222    -2.9901 H       
  37 H37           10.6240    -3.9895    -1.8544 H       
  38 H38            8.0684    -4.5088    -4.4126 H       
  39 H39            8.4633    -4.8176    -2.7039 H       
  40 H40            6.8384    -2.9754    -2.8633 H       
  41 H41            7.9199    -2.0922    -3.9685 H       
@<TRIPOS>BOND
   1    1    2 1
   2    1    9 1
   3    1   20 1
   4    1   21 1
   5    2    3 1
   6    2   22 1
   7    3    4 1
   8    3   23 1
   9    3   24 1
  10    4    5 ar
  11    4    9 ar
  12    5    6 ar
  13    5   10 1
  14    6    7 ar
  15    6   25 1
  16    7    8 ar
  17    7   26 1
  18    8    9 ar
  19    8   27 1
  20   10   11 1
  21   11   12 1
  22   11   28 1
  23   11   29 1
  24   12   13 1
  25   12   30 1
  26   12   31 1
  27   13   14 1
  28   13   32 1
  29   13   33 1
  30   14   15 1
  31   14   19 1
  32   15   16 1
  33   15   34 1
  34   15   35 1
  35   16   17 1
  36   16   36 1
  37   16   37 1
  38   17   18 1
  39   18   19 1
  40   18   38 1
  41   18   39 1
  42   19   40 1
  43   19   41 1

#	End of record

