#	Name: ASD01812524
#	Creating user name:	WinNT
#	Creation time:	15. 06. 2019 19:28

#	Modifying user name:	WinNT
#	Modification time:	15. 06. 2019 19:28

#	Program:	/corina/corina34_cracker 3.40 0067  02.08.2006

@<TRIPOS>MOLECULE
ASD01812524
  49   53    0    0    0
SMALL
NO_CHARGES


@<TRIPOS>ATOM
   1 C1            -0.0177     1.4558     0.0100 C.ar    
   2 C2             0.0021    -0.0041     0.0020 C.ar    
   3 C3            -1.2308    -0.7010     0.0105 C.ar    
   4 C4            -2.4444     0.0180     0.0269 C.ar    
   5 C5            -2.4560     1.3723     0.0347 C.ar    
   6 C6            -1.2625     2.1109     0.0315 C.ar    
   7 C7            -1.2224    -2.1043     0.0029 C.ar    
   8 C8            -0.0350    -2.7735    -0.0125 C.ar    
   9 C9             1.1742    -2.0857    -0.0208 C.ar    
  10 C10            1.2024    -0.7216    -0.0133 C.ar    
  11 N11            1.1113     2.1840     0.0032 N.2     
  12 C12            1.0865     3.4849     0.0109 C.2     
  13 N13           -0.0634     4.2041     0.0267 N.am    
  14 C14           -1.2638     3.5794     0.0393 C.2     
  15 C15           -3.7505    -0.7338     0.0354 C.3     
  16 C16           -4.1100    -1.1002     1.4522 C.ar    
  17 C17           -3.6808    -2.2961     1.9957 C.ar    
  18 C18           -4.8707    -0.2389     2.2284 C.ar    
  19 C19           -5.1771    -0.6166     3.5263 C.ar    
  20 C20           -4.7171    -1.8320     4.0010 C.ar    
  21 N21           -3.9911    -2.6242     3.2347 N.ar    
  22 O22           -2.3051     4.2108     0.0573 O.2     
  23 Cl23          -5.0930    -2.3172     5.6248 Cl      
  24 C24           -0.0054     5.6680     0.0349 C.3     
  25 C25            0.7252     6.1737    -1.2213 C.3     
  26 C26            1.9619     6.9529    -0.7282 C.3     
  27 C27            2.2382     6.3741     0.6817 C.3     
  28 C28            0.8128     6.1576     1.2476 C.3     
  29 O29           -0.1310     7.0379    -1.9710 O.3     
  30 H30           -3.4017     1.8938     0.0469 H       
  31 H31           -2.1532    -2.6519     0.0096 H       
  32 H32           -0.0330    -3.8535    -0.0179 H       
  33 H33            2.1020    -2.6383    -0.0326 H       
  34 H34            2.1472    -0.1984    -0.0200 H       
  35 H35            2.0262     4.0173     0.0047 H       
  36 H36           -4.5342    -0.1052    -0.3874 H       
  37 H37           -3.6513    -1.6410    -0.5606 H       
  38 H38           -3.0845    -2.9701     1.3986 H       
  39 H39           -5.2159     0.7041     1.8310 H       
  40 H40           -5.7672     0.0297     4.1591 H       
  41 H41           -1.0134     6.0811     0.0723 H       
  42 H42            1.0359     5.3300    -1.8376 H       
  43 H43            2.8121     6.7755    -1.3868 H       
  44 H44            1.7417     8.0186    -0.6667 H       
  45 H45            2.7743     5.4276     0.6124 H       
  46 H46            2.7913     7.0888     1.2910 H       
  47 H47            0.4070     7.0949     1.6283 H       
  48 H48            0.8244     5.3997     2.0310 H       
  49 H49            0.2728     7.3900    -2.7760 H       
@<TRIPOS>BOND
   1    1    2 ar
   2    1   11 1
   3    1    6 ar
   4    2   10 ar
   5    2    3 ar
   6    3    4 ar
   7    3    7 ar
   8    4    5 ar
   9    4   15 1
  10    5    6 ar
  11    5   30 1
  12    6   14 1
  13    7    8 ar
  14    7   31 1
  15    8    9 ar
  16    8   32 1
  17    9   10 ar
  18    9   33 1
  19   10   34 1
  20   11   12 2
  21   12   13 1
  22   12   35 1
  23   13   14 am
  24   13   24 1
  25   14   22 2
  26   15   16 1
  27   15   36 1
  28   15   37 1
  29   16   18 ar
  30   16   17 ar
  31   17   21 ar
  32   17   38 1
  33   18   19 ar
  34   18   39 1
  35   19   20 ar
  36   19   40 1
  37   20   21 ar
  38   20   23 1
  39   24   25 1
  40   24   28 1
  41   24   41 1
  42   25   29 1
  43   25   26 1
  44   25   42 1
  45   26   27 1
  46   26   43 1
  47   26   44 1
  48   27   28 1
  49   27   45 1
  50   27   46 1
  51   28   47 1
  52   28   48 1
  53   29   49 1

#	End of record

