#	Name: ASD01152553
#	Creating user name:	WinNT
#	Creation time:	15. 06. 2019 19:06

#	Modifying user name:	WinNT
#	Modification time:	15. 06. 2019 19:06

#	Program:	/corina/corina34_cracker 3.40 0067  02.08.2006

@<TRIPOS>MOLECULE
ASD01152553
  59   61    0    0    0
SMALL
NO_CHARGES


@<TRIPOS>ATOM
   1 C1             0.1114     1.1571    -0.6959 C.2     
   2 N2             0.0189    -0.1436    -0.6175 N.2     
   3 N3            -1.1205    -0.7661    -0.1080 N.am    
   4 C4            -2.2615    -0.0993     0.1330 C.2     
   5 C5            -2.3924     1.3536    -0.2592 C.3     
   6 C6            -1.0084     1.9736    -0.2035 C.2     
   7 C7            -2.9557     1.4586    -1.6778 C.3     
   8 O8            -0.8358     3.0970     0.2224 O.2     
   9 C9            -1.0734    -2.1389     0.1623 C.ar    
  10 O10           -3.1907    -0.6664     0.6673 O.2     
  11 C11           -3.1985     2.9070    -2.0160 C.ar    
  12 C12           -0.0101    -2.6693     0.8797 C.ar    
  13 C13           -2.0939    -2.9703    -0.2824 C.ar    
  14 C14           -2.0490    -4.3251    -0.0160 C.ar    
  15 C15           -0.9884    -4.8582     0.6946 C.ar    
  16 C16            0.0334    -4.0297     1.1463 C.ar    
  17 C17           -2.1982     3.6549    -2.6058 C.ar    
  18 C18           -4.4244     3.4846    -1.7406 C.ar    
  19 C19           -4.6502     4.8130    -2.0496 C.ar    
  20 C20           -2.4224     4.9884    -2.9169 C.ar    
  21 C21           -3.6511     5.5670    -2.6345 C.ar    
  22 C22           -3.8980     7.0150    -2.9711 C.3     
  23 F23           -0.9477    -6.1834     0.9543 F       
  24 C24           -5.0634     7.1179    -3.9571 C.3     
  25 C25           -4.2412     7.7842    -1.6938 C.3     
  26 O26           -1.4400     5.7263    -3.4977 O.3     
  27 C27           -0.2008     5.0648    -3.7600 C.3     
  28 O28            1.2212     1.7435    -1.2163 O.3     
  29 C29            2.2637     0.8753    -1.6654 C.3     
  30 N30            1.1045    -4.5683     1.8702 N.am    
  31 C31            1.7680    -3.8044     2.7605 C.2     
  32 O32            1.4983    -2.6269     2.8693 O.2     
  33 C33            2.8451    -4.4133     3.6209 C.3     
  34 H34           -3.0529     1.8665     0.4399 H       
  35 H35           -2.2419     1.0353    -2.3844 H       
  36 H36           -3.8952     0.9092    -1.7373 H       
  37 H37            0.7820    -2.0238     1.2294 H       
  38 H38           -2.9234    -2.5568    -0.8368 H       
  39 H39           -2.8435    -4.9693    -0.3628 H       
  40 H40           -1.2423     3.2023    -2.8244 H       
  41 H41           -5.2068     2.8969    -1.2837 H       
  42 H42           -5.6086     5.2618    -1.8338 H       
  43 H43           -3.0018     7.4411    -3.4221 H       
  44 H44           -5.9595     6.6918    -3.5061 H       
  45 H45           -5.2420     8.1652    -4.2006 H       
  46 H46           -4.8189     6.5699    -4.8671 H       
  47 H47           -4.4197     8.8315    -1.9373 H       
  48 H48           -5.1373     7.3581    -1.2428 H       
  49 H49           -3.4109     7.7109    -0.9914 H       
  50 H50            0.2216     4.7000    -2.8237 H       
  51 H51           -0.3727     4.2247    -4.4328 H       
  52 H52            0.4940     5.7652    -4.2235 H       
  53 H53            3.0888     1.4704    -2.0568 H       
  54 H54            2.6166     0.2693    -0.8309 H       
  55 H55            1.8808     0.2239    -2.4511 H       
  56 H56            1.3688    -5.4911     1.7308 H       
  57 H57            2.9446    -5.4724     3.3831 H       
  58 H58            3.7917    -3.9076     3.4302 H       
  59 H59            2.5780    -4.3003     4.6716 H       
@<TRIPOS>BOND
   1    1    2 2
   2    1   28 1
   3    1    6 1
   4    2    3 1
   5    3    4 am
   6    3    9 1
   7    4    5 1
   8    4   10 2
   9    5    6 1
  10    5    7 1
  11    5   34 1
  12    6    8 2
  13    7   11 1
  14    7   35 1
  15    7   36 1
  16    9   12 ar
  17    9   13 ar
  18   11   17 ar
  19   11   18 ar
  20   12   16 ar
  21   12   37 1
  22   13   14 ar
  23   13   38 1
  24   14   15 ar
  25   14   39 1
  26   15   16 ar
  27   15   23 1
  28   16   30 1
  29   17   20 ar
  30   17   40 1
  31   18   19 ar
  32   18   41 1
  33   19   21 ar
  34   19   42 1
  35   20   26 1
  36   20   21 ar
  37   21   22 1
  38   22   24 1
  39   22   25 1
  40   22   43 1
  41   24   44 1
  42   24   45 1
  43   24   46 1
  44   25   47 1
  45   25   48 1
  46   25   49 1
  47   26   27 1
  48   27   50 1
  49   27   51 1
  50   27   52 1
  51   28   29 1
  52   29   53 1
  53   29   54 1
  54   29   55 1
  55   30   31 am
  56   30   56 1
  57   31   32 2
  58   31   33 1
  59   33   57 1
  60   33   58 1
  61   33   59 1

#	End of record

