#	Name: ASD05720203
#	Creating user name:	WinNT
#	Creation time:	15. 06. 2019 21:02

#	Modifying user name:	WinNT
#	Modification time:	15. 06. 2019 21:02

#	Program:	/corina/corina34_cracker 3.40 0067  02.08.2006

@<TRIPOS>MOLECULE
ASD05720203
  58   58    0    0    0
SMALL
NO_CHARGES


@<TRIPOS>ATOM
   1 C1            -0.0187     1.5258     0.0104 C.3     
   2 C2             0.0021    -0.0041     0.0020 C.3     
   3 C3             0.7421    -0.5109     1.2415 C.3     
   4 S4            -1.6997    -0.6320     0.0149 S.o     
   5 O5            -1.6913    -2.0286    -0.2471 O.2     
   6 N6            -2.3418     0.0035    -1.3730 N.am    
   7 C7             0.7182    -0.4975    -1.2568 C.3     
   8 C8            -3.7338    -0.2785    -1.7322 C.3     
   9 C9            -3.8551    -0.3918    -3.2532 C.3     
  10 C10           -4.6160     0.8396    -1.2398 C.ar    
  11 C11           -5.8058     0.5409    -0.5976 C.ar    
  12 C12           -6.6100     1.5795    -0.1480 C.ar    
  13 C13           -6.1859     2.8819    -0.3619 C.ar    
  14 C14           -4.9858     3.1019    -1.0107 C.ar    
  15 N15           -4.2439     2.0915    -1.4204 N.ar    
  16 C16           -4.5164     4.5141    -1.2484 C.3     
  17 F17           -6.1794    -0.7441    -0.4114 F       
  18 O18           -3.1107    -1.5239    -3.7074 O.3     
  19 Si19          -3.1649    -1.7491    -5.3219 Si      
  20 C20           -4.9319    -2.0034    -5.8545 C.3     
  21 C21           -2.4666    -0.2511    -6.1816 C.3     
  22 C22           -2.1579    -3.2500    -5.7736 C.3     
  23 C23           -2.7313    -4.4803    -5.0675 C.3     
  24 C24           -2.2087    -3.4613    -7.2881 C.3     
  25 C25           -0.7067    -3.0411    -5.3362 C.3     
  26 H26            1.0039     1.9031     0.0027 H       
  27 H27           -0.5459     1.8868    -0.8726 H       
  28 H28           -0.5289     1.8773     0.9072 H       
  29 H29            0.2319    -0.1594     2.1383 H       
  30 H30            0.7568    -1.6008     1.2356 H       
  31 H31            1.7647    -0.1336     1.2338 H       
  32 H32           -1.7962     0.5625    -1.9482 H       
  33 H33            1.7408    -0.1202    -1.2645 H       
  34 H34            0.7330    -1.5874    -1.2628 H       
  35 H35            0.1910    -0.1364    -2.1398 H       
  36 H36           -4.0449    -1.2163    -1.2720 H       
  37 H37           -4.9034    -0.5130    -3.5260 H       
  38 H38           -3.4611     0.5122    -3.7174 H       
  39 H39           -7.5437     1.3776     0.3559 H       
  40 H40           -6.7863     3.7144    -0.0260 H       
  41 H41           -3.9130     4.8436    -0.4026 H       
  42 H42           -3.9169     4.5494    -2.1581 H       
  43 H43           -5.3797     5.1706    -1.3565 H       
  44 H44           -5.5210    -1.1253    -5.5901 H       
  45 H45           -4.9681    -2.1540    -6.9334 H       
  46 H46           -5.3404    -2.8799    -5.3514 H       
  47 H47           -1.4328    -0.1022    -5.8700 H       
  48 H48           -2.5028    -0.4016    -7.2606 H       
  49 H49           -3.0558     0.6271    -5.9173 H       
  50 H50           -3.7652    -4.6291    -5.3791 H       
  51 H51           -2.1422    -5.3584    -5.3318 H       
  52 H52           -2.6951    -4.3297    -3.9886 H       
  53 H53           -1.8002    -2.5848    -7.7911 H       
  54 H54           -1.6196    -4.3394    -7.5524 H       
  55 H55           -3.2426    -3.6101    -7.5997 H       
  56 H56           -0.6705    -2.8906    -4.2573 H       
  57 H57           -0.1176    -3.9193    -5.6005 H       
  58 H58           -0.2982    -2.1646    -5.8393 H       
@<TRIPOS>BOND
   1    1    2 1
   2    1   26 1
   3    1   27 1
   4    1   28 1
   5    2    3 1
   6    2    4 1
   7    2    7 1
   8    3   29 1
   9    3   30 1
  10    3   31 1
  11    4    5 2
  12    4    6 am
  13    6    8 1
  14    6   32 1
  15    7   33 1
  16    7   34 1
  17    7   35 1
  18    8    9 1
  19    8   10 1
  20    8   36 1
  21    9   18 1
  22    9   37 1
  23    9   38 1
  24   10   11 ar
  25   10   15 ar
  26   11   12 ar
  27   11   17 1
  28   12   13 ar
  29   12   39 1
  30   13   14 ar
  31   13   40 1
  32   14   15 ar
  33   14   16 1
  34   16   41 1
  35   16   42 1
  36   16   43 1
  37   18   19 1
  38   19   20 1
  39   19   21 1
  40   19   22 1
  41   20   44 1
  42   20   45 1
  43   20   46 1
  44   21   47 1
  45   21   48 1
  46   21   49 1
  47   22   23 1
  48   22   25 1
  49   22   24 1
  50   23   50 1
  51   23   51 1
  52   23   52 1
  53   24   53 1
  54   24   54 1
  55   24   55 1
  56   25   56 1
  57   25   57 1
  58   25   58 1

#	End of record

