#	Name: ASD01208590
#	Creating user name:	WinNT
#	Creation time:	15. 06. 2019 19:10

#	Modifying user name:	WinNT
#	Modification time:	15. 06. 2019 19:10

#	Program:	/corina/corina34_cracker 3.40 0067  02.08.2006

@<TRIPOS>MOLECULE
ASD01208590
  51   53    0    0    0
SMALL
NO_CHARGES


@<TRIPOS>ATOM
   1 N1            -0.0165     1.3729    -0.0179 N.pl3   
   2 C2             0.0023    -0.0042    -0.0365 C.2     
   3 C3             1.3220    -0.4122    -0.0554 C.2     
   4 C4             2.1134     0.7342    -0.0482 C.2     
   5 C5             1.2703     1.8246    -0.0250 C.2     
   6 C6            -1.1699    -0.8812    -0.0358 C.2     
   7 O7            -1.0260    -2.0889    -0.0534 O.2     
   8 O8            -2.4099    -0.3498    -0.0156 O.3     
   9 C9             1.6895     3.2420    -0.0104 C.ar    
  10 C10            0.7302     4.2553     0.0130 C.ar    
  11 C11            1.1273     5.5818     0.0266 C.ar    
  12 C12            2.4770     5.9042     0.0166 C.ar    
  13 C13            3.4339     4.9001    -0.0071 C.ar    
  14 C14            3.0455     3.5705    -0.0141 C.ar    
  15 O15            4.7544     5.2214    -0.0173 O.3     
  16 C16            5.6855     4.1416     0.0786 C.3     
  17 C17            7.0031     4.6547     0.6630 C.3     
  18 C18            5.9374     3.5602    -1.3140 C.3     
  19 O19            7.5961     5.5858    -0.2444 O.3     
  20 C20            8.8382     6.1281     0.2085 C.3     
  21 O21            0.1939     6.5694     0.0493 O.3     
  22 C22           -3.5078    -1.2645    -0.0161 C.3     
  23 C23           -4.8031    -0.4946     0.0079 C.ar    
  24 C24           -5.4099    -0.1255    -1.1781 C.ar    
  25 C25           -6.5980     0.5807    -1.1561 C.ar    
  26 C26           -7.1796     0.9175     0.0519 C.ar    
  27 C27           -6.5733     0.5476     1.2378 C.ar    
  28 C28           -5.3874    -0.1624     1.2158 C.ar    
  29 H29           -0.8116     1.9284    -0.0060 H       
  30 H30            1.6754    -1.4327    -0.0721 H       
  31 H31            3.1930     0.7634    -0.0582 H       
  32 H32           -0.3204     4.0052     0.0200 H       
  33 H33            2.7833     6.9398     0.0269 H       
  34 H34            3.7911     2.7894    -0.0273 H       
  35 H35            5.2776     3.3666     0.7275 H       
  36 H36            6.8103     5.1482     1.6156 H       
  37 H37            7.6822     3.8165     0.8190 H       
  38 H38            6.6476     2.7366    -1.2409 H       
  39 H39            4.9987     3.1947    -1.7304 H       
  40 H40            6.3453     4.3352    -1.9630 H       
  41 H41            9.5554     5.3205     0.3550 H       
  42 H42            9.2231     6.8253    -0.5357 H       
  43 H43            8.6835     6.6522     1.1516 H       
  44 H44           -0.0672     6.8434     0.9391 H       
  45 H45           -3.4675    -1.8799    -0.9149 H       
  46 H46           -3.4487    -1.9037     0.8648 H       
  47 H47           -4.9555    -0.3887    -2.1219 H       
  48 H48           -7.0717     0.8697    -2.0827 H       
  49 H49           -8.1075     1.4698     0.0691 H       
  50 H50           -7.0275     0.8110     2.1816 H       
  51 H51           -4.9156    -0.4546     2.1423 H       
@<TRIPOS>BOND
   1    1    2 1
   2    1    5 1
   3    1   29 1
   4    2    3 2
   5    2    6 1
   6    3    4 1
   7    3   30 1
   8    4    5 2
   9    4   31 1
  10    5    9 1
  11    6    7 2
  12    6    8 1
  13    8   22 1
  14    9   10 ar
  15    9   14 ar
  16   10   11 ar
  17   10   32 1
  18   11   12 ar
  19   11   21 1
  20   12   13 ar
  21   12   33 1
  22   13   14 ar
  23   13   15 1
  24   14   34 1
  25   15   16 1
  26   16   17 1
  27   16   18 1
  28   16   35 1
  29   17   19 1
  30   17   36 1
  31   17   37 1
  32   18   38 1
  33   18   39 1
  34   18   40 1
  35   19   20 1
  36   20   41 1
  37   20   42 1
  38   20   43 1
  39   21   44 1
  40   22   23 1
  41   22   45 1
  42   22   46 1
  43   23   24 ar
  44   23   28 ar
  45   24   25 ar
  46   24   47 1
  47   25   26 ar
  48   25   48 1
  49   26   27 ar
  50   26   49 1
  51   27   28 ar
  52   27   50 1
  53   28   51 1

#	End of record

