#	Name: ASD01870570
#	Creating user name:	WinNT
#	Creation time:	15. 06. 2019 19:39

#	Modifying user name:	WinNT
#	Modification time:	15. 06. 2019 19:39

#	Program:	/corina/corina34_cracker 3.40 0067  02.08.2006

@<TRIPOS>MOLECULE
ASD01870570
  42   45    0    0    0
SMALL
NO_CHARGES


@<TRIPOS>ATOM
   1 C1            -0.0107     1.3946     0.0269 C.ar    
   2 C2             0.0041     0.0063     0.0173 C.ar    
   3 C3             1.2072    -0.6715    -0.0035 C.ar    
   4 C4             2.4025     0.0350    -0.0149 C.ar    
   5 C5             2.3888     1.4240    -0.0049 C.ar    
   6 C6             1.1860     2.1024     0.0155 C.ar    
   7 N7             3.6221    -0.6529    -0.0360 N.am    
   8 C8             4.6709    -0.1446    -0.7128 C.2     
   9 C9             5.9792    -0.8025    -0.6396 C.2     
  10 O10            6.2666    -1.9198     0.0598 O.3     
  11 C11            7.1189    -0.3951    -1.2721 C.2     
  12 C12            8.1232    -1.3119    -0.9242 C.2     
  13 C13            7.5590    -2.2291    -0.1078 C.2     
  14 C14            7.2690     0.8058    -2.1700 C.3     
  15 O15            4.5320     0.8607    -1.3848 O.2     
  16 Cl16           1.1682     3.8382     0.0268 Cl      
  17 N17           -1.2303     2.0816     0.0421 N.pl3   
  18 C18           -1.9513     2.4855     1.2522 C.3     
  19 C19           -3.2164     3.1991     0.7481 C.3     
  20 C20           -3.1095     3.1417    -0.7593 C.ar    
  21 C21           -1.9340     2.4871    -1.0931 C.ar    
  22 C22           -3.9508     3.6180    -1.7462 C.ar    
  23 C23           -3.6291     3.4392    -3.0787 C.ar    
  24 C24           -2.4617     2.7822    -3.4227 C.ar    
  25 C25           -1.6123     2.3172    -2.4418 C.ar    
  26 H26           -0.9253    -0.5437     0.0265 H       
  27 H27            1.2183    -1.7514    -0.0106 H       
  28 H28            3.3186     1.9733    -0.0131 H       
  29 H29            3.7120    -1.4953     0.4364 H       
  30 H30            9.1525    -1.2902    -1.2504 H       
  31 H31            8.0662    -3.0735     0.3350 H       
  32 H32            7.5503     1.6732    -1.5728 H       
  33 H33            8.0424     0.6098    -2.9126 H       
  34 H34            6.3229     1.0031    -2.6741 H       
  35 H35           -2.2209     1.6093     1.8419 H       
  36 H36           -1.3426     3.1684     1.8448 H       
  37 H37           -4.1096     2.6739     1.0863 H       
  38 H38           -3.2306     4.2342     1.0892 H       
  39 H39           -4.8621     4.1308    -1.4761 H       
  40 H40           -4.2880     3.8114    -3.8493 H       
  41 H41           -2.2098     2.6418    -4.4635 H       
  42 H42           -0.7020     1.8053    -2.7172 H       
@<TRIPOS>BOND
   1    1    2 ar
   2    1    6 ar
   3    1   17 1
   4    2    3 ar
   5    2   26 1
   6    3    4 ar
   7    3   27 1
   8    4    5 ar
   9    4    7 1
  10    5    6 ar
  11    5   28 1
  12    6   16 1
  13    7    8 am
  14    7   29 1
  15    8    9 1
  16    8   15 2
  17    9   11 2
  18    9   10 1
  19   10   13 1
  20   11   12 1
  21   11   14 1
  22   12   13 2
  23   12   30 1
  24   13   31 1
  25   14   32 1
  26   14   33 1
  27   14   34 1
  28   17   18 1
  29   17   21 1
  30   18   19 1
  31   18   35 1
  32   18   36 1
  33   19   20 1
  34   19   37 1
  35   19   38 1
  36   20   22 ar
  37   20   21 ar
  38   21   25 ar
  39   22   23 ar
  40   22   39 1
  41   23   24 ar
  42   23   40 1
  43   24   25 ar
  44   24   41 1
  45   25   42 1

#	End of record

