#	Name: ASD02030103
#	Creating user name:	WinNT
#	Creation time:	15. 06. 2019 20:14

#	Modifying user name:	WinNT
#	Modification time:	15. 06. 2019 20:14

#	Program:	/corina/corina34_cracker 3.40 0067  02.08.2006

@<TRIPOS>MOLECULE
ASD02030103
  62   66    0    0    0
SMALL
NO_CHARGES


@<TRIPOS>ATOM
   1 N1            -0.0333     1.2422     0.3464 N.am    
   2 C2            -0.2596    -0.2098     0.3688 C.3     
   3 C3            -1.3008    -0.5269     1.4495 C.3     
   4 N4            -2.4532     0.3669     1.2679 N.am    
   5 C5            -2.2269     1.8188     1.2454 C.3     
   6 C6            -1.1865     2.1361     0.1704 C.3     
   7 C7             1.2088     1.7451     0.4902 C.2     
   8 C8             2.3397     0.8445     0.7991 C.2     
   9 N9             3.5691     1.2161     1.0843 N.2     
  10 N10            2.2917    -0.4996     0.8438 N.2     
  11 C11            3.4920    -0.9217     1.1498 C.2     
  12 N12            4.2803     0.1629     1.2973 N.pl3   
  13 O13            1.3991     2.9393     0.3660 O.2     
  14 C14           -3.6953    -0.1361     1.1241 C.2     
  15 C15           -3.8946    -1.5900     1.0425 C.2     
  16 O16           -4.6516     0.6134     1.0617 O.2     
  17 C17           -0.7352     3.5917     0.3063 C.3     
  18 C18           -1.7948     1.9107    -1.2153 C.3     
  19 C19            5.6425     0.1470     1.6260 C.ar    
  20 C20            6.3427     1.3398     1.7481 C.ar    
  21 C21            7.6852     1.3208     2.0721 C.ar    
  22 C22            8.3321     0.1155     2.2745 C.ar    
  23 C23            7.6375    -1.0741     2.1537 C.ar    
  24 C24            6.2934    -1.0614     1.8359 C.ar    
  25 C25           -5.0743    -2.2028     0.7649 C.2     
  26 C26           -4.8002    -3.6391     0.7889 C.ar    
  27 C27           -3.4309    -3.7610     1.0897 C.ar    
  28 O28           -2.9316    -2.5173     1.2265 O.3     
  29 C29           -6.3979    -1.5374     0.4882 C.3     
  30 O30           -6.5247    -1.2939    -0.9141 O.3     
  31 C31           -7.7514    -0.6622    -1.2858 C.3     
  32 C32           -5.5773    -4.7823     0.5867 C.ar    
  33 C33           -5.0019    -6.0178     0.6823 C.ar    
  34 C34           -3.6516    -6.1439     0.9792 C.ar    
  35 C35           -2.8679    -5.0288     1.1822 C.ar    
  36 H36           -0.6294    -0.5374    -0.6028 H       
  37 H37            0.6745    -0.7221     0.5993 H       
  38 H38           -1.6232    -1.5637     1.3538 H       
  39 H39           -0.8650    -0.3662     2.4356 H       
  40 H40           -3.1610     2.3311     1.0150 H       
  41 H41           -1.8571     2.1465     2.2170 H       
  42 H42            3.7957    -1.9516     1.2663 H       
  43 H43           -0.1956     3.7187     1.2448 H       
  44 H44           -0.0807     3.8484    -0.5267 H       
  45 H45           -1.6077     4.2449     0.2976 H       
  46 H46           -2.6584     2.5631    -1.3435 H       
  47 H47           -1.0515     2.1374    -1.9796 H       
  48 H48           -2.1077     0.8709    -1.3099 H       
  49 H49            5.8382     2.2814     1.5894 H       
  50 H50            8.2303     2.2482     2.1672 H       
  51 H51            9.3820     0.1032     2.5272 H       
  52 H52            8.1454    -2.0139     2.3124 H       
  53 H53            5.7514    -1.9908     1.7420 H       
  54 H54           -7.2077    -2.1879     0.8187 H       
  55 H55           -6.4487    -0.5914     1.0273 H       
  56 H56           -8.5892    -1.2945    -0.9922 H       
  57 H57           -7.8303     0.3020    -0.7835 H       
  58 H58           -7.7703    -0.5121    -2.3653 H       
  59 H59           -6.6283    -4.6899     0.3562 H       
  60 H60           -5.6017    -6.9023     0.5262 H       
  61 H61           -3.2104    -7.1270     1.0520 H       
  62 H62           -1.8186    -5.1395     1.4129 H       
@<TRIPOS>BOND
   1    1    2 1
   2    1    7 am
   3    1    6 1
   4    2    3 1
   5    2   36 1
   6    2   37 1
   7    3    4 1
   8    3   38 1
   9    3   39 1
  10    4    5 1
  11    4   14 am
  12    5    6 1
  13    5   40 1
  14    5   41 1
  15    6   17 1
  16    6   18 1
  17    7    8 1
  18    7   13 2
  19    8    9 2
  20    8   10 1
  21    9   12 1
  22   10   11 2
  23   11   12 1
  24   11   42 1
  25   12   19 1
  26   14   15 1
  27   14   16 2
  28   15   25 2
  29   15   28 1
  30   17   43 1
  31   17   44 1
  32   17   45 1
  33   18   46 1
  34   18   47 1
  35   18   48 1
  36   19   20 ar
  37   19   24 ar
  38   20   21 ar
  39   20   49 1
  40   21   22 ar
  41   21   50 1
  42   22   23 ar
  43   22   51 1
  44   23   24 ar
  45   23   52 1
  46   24   53 1
  47   25   26 1
  48   25   29 1
  49   26   27 ar
  50   26   32 ar
  51   27   28 1
  52   27   35 ar
  53   29   30 1
  54   29   54 1
  55   29   55 1
  56   30   31 1
  57   31   56 1
  58   31   57 1
  59   31   58 1
  60   32   33 ar
  61   32   59 1
  62   33   34 ar
  63   33   60 1
  64   34   35 ar
  65   34   61 1
  66   35   62 1

#	End of record

