#	Name: ASD00431206
#	Creating user name:	WinNT
#	Creation time:	15. 06. 2019 18:35

#	Modifying user name:	WinNT
#	Modification time:	15. 06. 2019 18:35

#	Program:	/corina/corina34_cracker 3.40 0067  02.08.2006

@<TRIPOS>MOLECULE
ASD00431206
  51   53    0    0    0
SMALL
NO_CHARGES


@<TRIPOS>ATOM
   1 C1            -0.4777     1.7232    -0.7014 C.2     
   2 C2            -0.7444     0.2947    -1.1004 C.3     
   3 O3             0.6384     2.0617    -0.3690 O.2     
   4 N4            -1.4784     2.6259    -0.7192 N.am    
   5 C5            -1.2191     4.0146    -0.3313 C.3     
   6 C6            -0.6932     4.7920    -1.5396 C.3     
   7 O7            -3.6987     4.5552    -0.4239 O.3     
   8 N8            -4.5190     5.1780     0.2166 N.2     
   9 C9            -3.9490     5.7303     1.2599 C.2     
  10 N10           -2.6389     5.3893     1.2247 N.2     
  11 C11           -2.4974     4.6473     0.1554 C.2     
  12 S12           -3.8331     7.3054     3.6787 S.3     
  13 C13           -5.3243     7.9876     4.1615 C.2     
  14 N14           -6.2611     7.6604     3.3250 N.2     
  15 C15           -5.9177     6.9023     2.3074 C.2     
  16 C16           -4.6105     6.5671     2.2806 C.2     
  17 O17           -5.5028     8.7589     5.2601 O.3     
  18 C18           -6.7742     9.1027     5.5991 C.ar    
  19 C19           -6.9965    10.0354     6.6036 C.ar    
  20 C20           -8.2880    10.3851     6.9479 C.ar    
  21 C21           -9.3635     9.8035     6.2889 C.ar    
  22 C22           -9.1398     8.8711     5.2846 C.ar    
  23 C23           -7.8479     8.5261     4.9377 C.ar    
  24 N24          -10.6716    10.1567     6.6371 N.pl3   
  25 C25          -11.8058     9.5431     5.9418 C.3     
  26 C26          -13.1133    10.0988     6.5096 C.3     
  27 C27          -14.2927     9.5535     5.7017 C.3     
  28 C28          -13.2563     9.6724     7.9720 C.3     
  29 Cl29          -5.6518    10.7614     7.4271 Cl      
  30 H30           -1.0293    -0.2813    -0.2200 H       
  31 H31           -1.5533     0.2664    -1.8305 H       
  32 H32            0.1564    -0.1341    -1.5394 H       
  33 H33           -2.3702     2.3561    -0.9889 H       
  34 H34           -0.4764     4.0365     0.4662 H       
  35 H35           -1.4359     4.7701    -2.3370 H       
  36 H36           -0.5003     5.8252    -1.2509 H       
  37 H37            0.2314     4.3344    -1.8915 H       
  38 H38           -6.6219     6.5752     1.5568 H       
  39 H39           -8.4613    11.1102     7.7293 H       
  40 H40           -9.9757     8.4186     4.7720 H       
  41 H41           -7.6742     7.8038     4.1537 H       
  42 H42          -10.8277    10.8079     7.3389 H       
  43 H43          -11.7459     9.7709     4.8776 H       
  44 H44          -11.7779     8.4628     6.0842 H       
  45 H45          -13.1028    11.1870     6.4478 H       
  46 H46          -14.3032     8.4653     5.7635 H       
  47 H47          -15.2242     9.9494     6.1062 H       
  48 H48          -14.1908     9.8573     4.6599 H       
  49 H49          -12.4161    10.0609     8.5475 H       
  50 H50          -14.1878    10.0683     8.3765 H       
  51 H51          -13.2668     8.5842     8.0338 H       
@<TRIPOS>BOND
   1    1    2 1
   2    1    3 2
   3    1    4 am
   4    2   30 1
   5    2   31 1
   6    2   32 1
   7    4    5 1
   8    4   33 1
   9    5    6 1
  10    5   11 1
  11    5   34 1
  12    6   35 1
  13    6   36 1
  14    6   37 1
  15    7    8 1
  16    7   11 1
  17    8    9 2
  18    9   10 1
  19    9   16 1
  20   10   11 2
  21   12   13 1
  22   12   16 1
  23   13   14 2
  24   13   17 1
  25   14   15 1
  26   15   16 2
  27   15   38 1
  28   17   18 1
  29   18   19 ar
  30   18   23 ar
  31   19   20 ar
  32   19   29 1
  33   20   21 ar
  34   20   39 1
  35   21   22 ar
  36   21   24 1
  37   22   23 ar
  38   22   40 1
  39   23   41 1
  40   24   25 1
  41   24   42 1
  42   25   26 1
  43   25   43 1
  44   25   44 1
  45   26   27 1
  46   26   28 1
  47   26   45 1
  48   27   46 1
  49   27   47 1
  50   27   48 1
  51   28   49 1
  52   28   50 1
  53   28   51 1

#	End of record

