#	Name: ASD01916530
#	Creating user name:	WinNT
#	Creation time:	15. 06. 2019 20:07

#	Modifying user name:	WinNT
#	Modification time:	15. 06. 2019 20:07

#	Program:	/corina/corina34_cracker 3.40 0067  02.08.2006

@<TRIPOS>MOLECULE
ASD01916530
  44   47    0    0    0
SMALL
NO_CHARGES


@<TRIPOS>ATOM
   1 C1            -0.0171     1.4100     0.0098 C.ar    
   2 C2             0.0021    -0.0041     0.0020 C.ar    
   3 C3            -1.1912    -0.7256     0.0414 C.ar    
   4 C4            -2.3838    -0.0642     0.0741 C.ar    
   5 C5            -2.4215     1.3385     0.0659 C.ar    
   6 C6            -1.2406     2.0764     0.0357 C.ar    
   7 N7             1.1598     2.0754     0.0021 N.2     
   8 C8             2.3197     1.4679    -0.0397 C.2     
   9 N9             2.4199     0.1197    -0.1575 N.am    
  10 C10            1.3103    -0.6627    -0.0625 C.2     
  11 C11           -3.6829     2.0160     0.0891 C.1     
  12 C12           -4.7170     2.5714     0.1081 C.1     
  13 C13           -5.9784     3.2489     0.1314 C.ar    
  14 N14           -6.0136     4.5779     0.1235 N.ar    
  15 C15           -7.1529     5.2379     0.1437 C.ar    
  16 C16           -8.3634     4.5665     0.1746 C.ar    
  17 C17           -8.3730     3.1771     0.1838 C.ar    
  18 C18           -7.1630     2.5081     0.1563 C.ar    
  19 O19            1.4016    -1.8763    -0.0320 O.2     
  20 C20            3.5357     2.3452     0.1020 C.3     
  21 C21            4.7921     1.6927    -0.4308 C.3     
  22 C22            4.8964     0.2362    -0.0271 C.3     
  23 C23            3.6794    -0.5617    -0.4369 C.3     
  24 C24            6.1347    -0.3738    -0.6870 C.3     
  25 C25            5.0555     0.1530     1.4923 C.3     
  26 Cl26          -9.8559     5.4528     0.2021 Cl      
  27 H27           -1.1709    -1.8054     0.0456 H       
  28 H28           -3.3064    -0.6247     0.1063 H       
  29 H29           -1.2729     3.1559     0.0321 H       
  30 H30           -7.1429     6.3178     0.1365 H       
  31 H31           -9.3048     2.6317     0.2080 H       
  32 H32           -7.1338     1.4285     0.1621 H       
  33 H33            3.3643     3.2746    -0.4412 H       
  34 H34            3.6805     2.5783     1.1569 H       
  35 H35            4.7909     1.7589    -1.5188 H       
  36 H36            5.6596     2.2293    -0.0465 H       
  37 H37            3.6886    -1.5121     0.0969 H       
  38 H38            3.7378    -0.7639    -1.5064 H       
  39 H39            7.0239     0.1641    -0.3582 H       
  40 H40            6.2186    -1.4226    -0.4023 H       
  41 H41            6.0438    -0.2976    -1.7705 H       
  42 H42            4.1896     0.6076     1.9737 H       
  43 H43            5.1315    -0.8919     1.7930 H       
  44 H44            5.9587     0.6841     1.7928 H       
@<TRIPOS>BOND
   1    1    2 ar
   2    1    7 1
   3    1    6 ar
   4    2    3 ar
   5    2   10 1
   6    3    4 ar
   7    3   27 1
   8    4    5 ar
   9    4   28 1
  10    5    6 ar
  11    5   11 1
  12    6   29 1
  13    7    8 2
  14    8    9 1
  15    8   20 1
  16    9   10 am
  17    9   23 1
  18   10   19 2
  19   11   12 3
  20   12   13 1
  21   13   14 ar
  22   13   18 ar
  23   14   15 ar
  24   15   16 ar
  25   15   30 1
  26   16   17 ar
  27   16   26 1
  28   17   18 ar
  29   17   31 1
  30   18   32 1
  31   20   21 1
  32   20   33 1
  33   20   34 1
  34   21   22 1
  35   21   35 1
  36   21   36 1
  37   22   23 1
  38   22   24 1
  39   22   25 1
  40   23   37 1
  41   23   38 1
  42   24   39 1
  43   24   40 1
  44   24   41 1
  45   25   42 1
  46   25   43 1
  47   25   44 1

#	End of record

