#	Name: ASD05763008
#	Creating user name:	WinNT
#	Creation time:	15. 06. 2019 21:03

#	Modifying user name:	WinNT
#	Modification time:	15. 06. 2019 21:03

#	Program:	/corina/corina34_cracker 3.40 0067  02.08.2006

@<TRIPOS>MOLECULE
ASD05763008
  81   81    0    0    0
SMALL
NO_CHARGES


@<TRIPOS>ATOM
   1 C1             0.0273     1.1700     0.0200 C.2     
   2 O2             0.0267    -0.0423    -0.0170 O.2     
   3 N3             2.4214     1.0280     0.4113 N.3     
   4 C4             1.3321     1.9238     0.0003 C.3     
   5 C5             1.6020     2.4390    -1.4148 C.3     
   6 C6             2.8609     3.3086    -1.4095 C.3     
   7 C7             3.1308     3.8239    -2.8246 C.3     
   8 N8             4.3362     4.6564    -2.8195 N.pl3   
   9 C9             4.7782     5.2330    -3.9863 C.2     
  10 N10            4.1985     4.9439    -5.1155 N.2     
  11 N11            5.8375     6.1195    -3.9607 N.am    
  12 C12           -3.5025     1.9921    -0.4569 C.2     
  13 O13           -3.2481     3.1212    -0.8194 O.2     
  14 N14           -1.1391     1.8431     0.0733 N.am    
  15 C15           -2.4077     1.1105     0.0864 C.3     
  16 C16           -2.7463     0.7027     1.5217 C.3     
  17 C17           -1.6348    -0.1923     2.0733 C.3     
  18 C18           -2.8716     1.9551     2.3916 C.3     
  19 C19           -7.1570     1.9303    -0.5189 C.2     
  20 O20           -7.2095     0.9850     0.2391 O.2     
  21 N21           -4.7643     1.5258    -0.5400 N.am    
  22 C22           -5.8286     2.3828    -1.0682 C.3     
  23 C23           -5.8491     2.2881    -2.5951 C.3     
  24 O24           -6.2045     0.9601    -2.9852 O.3     
  25 C25          -10.4838     1.7412    -1.4739 C.2     
  26 O26          -10.0910     1.8192    -2.6139 O.2     
  27 N27           -8.2867     2.5761    -0.8701 N.am    
  28 C28           -9.5780     2.1362    -0.3361 C.3     
  29 C29          -10.2195     3.2791     0.4533 C.3     
  30 C30           -9.3743     3.5917     1.6612 C.ar    
  31 C31           -8.3623     4.5292     1.5727 C.ar    
  32 C32           -7.5869     4.8159     2.6806 C.ar    
  33 C33           -7.8239     4.1655     3.8772 C.ar    
  34 C34           -8.8365     3.2286     3.9658 C.ar    
  35 C35           -9.6146     2.9451     2.8591 C.ar    
  36 O36          -11.7270     1.3028    -1.2209 O.3     
  37 O37            5.9517     6.0295    -1.7472 O.2     
  38 C38            6.3564     6.5157    -2.7816 C.2     
  39 C39            7.4394     7.5631    -2.7488 C.3     
  40 C40           -8.2232     3.7179    -1.7857 C.3     
  41 H41            2.4947     0.2380    -0.2122 H       
  42 H42            3.2971     1.5260     0.4684 H       
  43 H43            1.2753     2.7666     0.6892 H       
  44 H44            1.7470     1.5939    -2.0877 H       
  45 H45            0.7525     3.0318    -1.7539 H       
  46 H46            2.7159     4.1537    -0.7366 H       
  47 H47            3.7105     2.7158    -1.0705 H       
  48 H48            3.2758     2.9787    -3.4975 H       
  49 H49            2.2813     4.4166    -3.1636 H       
  50 H50            4.8225     4.8008    -1.9927 H       
  51 H51            4.4616     5.4044    -5.9276 H       
  52 H52            6.2079     6.4567    -4.7914 H       
  53 H53           -1.1386     2.8127     0.1030 H       
  54 H54           -2.3184     0.2183    -0.5333 H       
  55 H55           -3.6902     0.1576     1.5314 H       
  56 H56           -0.6909     0.3528     2.0636 H       
  57 H57           -1.8760    -0.4828     3.0958 H       
  58 H58           -1.5455    -1.0845     1.4536 H       
  59 H59           -3.6635     2.5927     1.9986 H       
  60 H60           -3.1128     1.6646     3.4141 H       
  61 H61           -1.9277     2.5002     2.3818 H       
  62 H62           -4.9677     0.6228    -0.2501 H       
  63 H63           -5.6451     3.4152    -0.7707 H       
  64 H64           -6.5804     2.9916    -2.9930 H       
  65 H65           -4.8614     2.5300    -2.9875 H       
  66 H66           -6.2372     0.8268    -3.9424 H       
  67 H67           -9.4267     1.2804     0.3217 H       
  68 H68          -10.2895     4.1636    -0.1799 H       
  69 H69          -11.2178     2.9828     0.7753 H       
  70 H70           -8.1772     5.0374     0.6379 H       
  71 H71           -6.7958     5.5479     2.6113 H       
  72 H72           -7.2176     4.3889     4.7426 H       
  73 H73           -9.0213     2.7202     4.9006 H       
  74 H74          -10.4081     2.2158     2.9293 H       
  75 H75          -12.2709     1.0612    -1.9831 H       
  76 H76            7.0670     8.4849    -3.1957 H       
  77 H77            7.7309     7.7522    -1.7157 H       
  78 H78            8.3036     7.2099    -3.3114 H       
  79 H79           -8.3219     3.3661    -2.8126 H       
  80 H80           -9.0339     4.4106    -1.5595 H       
  81 H81           -7.2667     4.2267    -1.6663 H       
@<TRIPOS>BOND
   1    1    2 2
   2    1    4 1
   3    1   14 am
   4    3    4 1
   5    3   41 1
   6    3   42 1
   7    4    5 1
   8    4   43 1
   9    5    6 1
  10    5   44 1
  11    5   45 1
  12    6    7 1
  13    6   46 1
  14    6   47 1
  15    7    8 1
  16    7   48 1
  17    7   49 1
  18    8    9 1
  19    8   50 1
  20    9   10 2
  21    9   11 1
  22   10   51 1
  23   11   38 am
  24   11   52 1
  25   12   13 2
  26   12   15 1
  27   12   21 am
  28   14   15 1
  29   14   53 1
  30   15   16 1
  31   15   54 1
  32   16   17 1
  33   16   18 1
  34   16   55 1
  35   17   56 1
  36   17   57 1
  37   17   58 1
  38   18   59 1
  39   18   60 1
  40   18   61 1
  41   19   20 2
  42   19   22 1
  43   19   27 am
  44   21   22 1
  45   21   62 1
  46   22   23 1
  47   22   63 1
  48   23   24 1
  49   23   64 1
  50   23   65 1
  51   24   66 1
  52   25   26 2
  53   25   28 1
  54   25   36 1
  55   27   28 1
  56   27   40 1
  57   28   29 1
  58   28   67 1
  59   29   30 1
  60   29   68 1
  61   29   69 1
  62   30   31 ar
  63   30   35 ar
  64   31   32 ar
  65   31   70 1
  66   32   33 ar
  67   32   71 1
  68   33   34 ar
  69   33   72 1
  70   34   35 ar
  71   34   73 1
  72   35   74 1
  73   36   75 1
  74   37   38 2
  75   38   39 1
  76   39   76 1
  77   39   77 1
  78   39   78 1
  79   40   79 1
  80   40   80 1
  81   40   81 1

#	End of record

