#	Name: ASD03331655
#	Creating user name:	WinNT
#	Creation time:	15. 06. 2019 20:39

#	Modifying user name:	WinNT
#	Modification time:	15. 06. 2019 20:39

#	Program:	/corina/corina34_cracker 3.40 0067  02.08.2006

@<TRIPOS>MOLECULE
ASD03331655
  37   39    0    0    0
SMALL
NO_CHARGES


@<TRIPOS>ATOM
   1 C1             2.0441     0.2572    -0.4190 C.ar    
   2 C2             1.0417    -0.4418     0.1928 C.ar    
   3 C3             0.2425     0.1651     1.1516 C.ar    
   4 C4             0.4443     1.4819     1.5036 C.ar    
   5 C5             2.2665     1.5922    -0.0773 C.ar    
   6 C6             3.2226     2.6106    -0.5186 C.2     
   7 C7             1.4588     2.2123     0.8937 C.ar    
   8 N8             1.9020     3.5095     1.0225 N.pl3   
   9 C9             2.9531     3.7284     0.1741 C.2     
  10 S10            3.8233     5.2521     0.0140 S.o2    
  11 O11            3.1835     6.1732     0.8866 O.2     
  12 O12            5.2060     4.9351     0.0967 O.2     
  13 N13            3.5619     5.8065    -1.5244 N.am    
  14 C14            2.2096     6.1760    -1.9500 C.3     
  15 C15            2.3289     7.1461    -5.5964 C.ar    
  16 C16            2.2583     6.3872    -4.4435 C.ar    
  17 C17            2.2871     7.0041    -3.2067 C.ar    
  18 C18            2.3866     8.3803    -3.1222 C.ar    
  19 C19            2.4568     9.1404    -4.2745 C.ar    
  20 C20            2.4280     8.5235    -5.5126 C.ar    
  21 Cl21           2.5173     9.4775    -6.9603 Cl      
  22 C22            4.3037     2.4364    -1.5539 C.3     
  23 H23            2.6649    -0.2229    -1.1610 H       
  24 H24            0.8698    -1.4746    -0.0722 H       
  25 H25           -0.5457    -0.4004     1.6263 H       
  26 H26           -0.1833     1.9454     2.2503 H       
  27 H27            1.5253     4.1699     1.6249 H       
  28 H28            4.3041     5.8867    -2.1437 H       
  29 H29            1.6307     5.2732    -2.1448 H       
  30 H30            1.7263     6.7547    -1.1628 H       
  31 H31            2.3109     6.6637    -6.5625 H       
  32 H32            2.1806     5.3119    -4.5088 H       
  33 H33            2.4091     8.8617    -2.1557 H       
  34 H34            2.5338    10.2156    -4.2084 H       
  35 H35            3.8881     2.6118    -2.5462 H       
  36 H36            5.1061     3.1495    -1.3649 H       
  37 H37            4.6988     1.4220    -1.4996 H       
@<TRIPOS>BOND
   1    1    2 ar
   2    1    5 ar
   3    1   23 1
   4    2    3 ar
   5    2   24 1
   6    3    4 ar
   7    3   25 1
   8    4    7 ar
   9    4   26 1
  10    5    7 ar
  11    5    6 1
  12    6    9 2
  13    6   22 1
  14    7    8 1
  15    8    9 1
  16    8   27 1
  17    9   10 1
  18   10   11 2
  19   10   12 2
  20   10   13 am
  21   13   14 1
  22   13   28 1
  23   14   17 1
  24   14   29 1
  25   14   30 1
  26   15   16 ar
  27   15   20 ar
  28   15   31 1
  29   16   17 ar
  30   16   32 1
  31   17   18 ar
  32   18   19 ar
  33   18   33 1
  34   19   20 ar
  35   19   34 1
  36   20   21 1
  37   22   35 1
  38   22   36 1
  39   22   37 1

#	End of record

