#	Name: ASD01811843
#	Creating user name:	WinNT
#	Creation time:	15. 06. 2019 19:27

#	Modifying user name:	WinNT
#	Modification time:	15. 06. 2019 19:27

#	Program:	/corina/corina34_cracker 3.40 0067  02.08.2006

@<TRIPOS>MOLECULE
ASD01811843
  56   60    0    0    0
SMALL
NO_CHARGES


@<TRIPOS>ATOM
   1 C1             0.3703     2.1428     0.1799 C.3     
   2 C2             0.2371     0.6640    -0.0701 C.2     
   3 C3             0.8860    -0.1983     0.7082 C.2     
   4 C4             1.7488     0.3457     1.7786 C.ar    
   5 C5             2.1226     1.6906     1.7185 C.ar    
   6 N6             1.7171     2.4768     0.6457 N.3     
   7 C7             1.8224     3.9056     0.9706 C.3     
   8 C8             2.1817    -0.4684     2.8301 C.ar    
   9 C9             2.9657     0.0432     3.8238 C.ar    
  10 C10            3.3375     1.3887     3.7973 C.ar    
  11 C11            2.9130     2.2270     2.7424 C.ar    
  12 C12            4.1739     1.9801     4.8517 C.2     
  13 N13            4.4781     3.2941     4.7436 N.am    
  14 C14            4.0199     4.0271     3.6940 C.2     
  15 N15            3.2825     3.5320     2.7473 N.2     
  16 O16            4.5772     1.3130     5.7869 O.2     
  17 C17            5.3085     3.9332     5.7674 C.3     
  18 C18            4.5252     5.0737     6.4207 C.3     
  19 C19            5.3925     5.7411     7.4899 C.3     
  20 C20            6.6612     6.2994     6.8421 C.3     
  21 C21            7.4445     5.1590     6.1888 C.3     
  22 C22            6.5772     4.4916     5.1196 C.3     
  23 O23            3.3403     4.5522     7.0258 O.3     
  24 C24            1.7797    -1.9203     2.8668 C.3     
  25 C25            0.4404    -2.0538     3.5446 C.ar    
  26 C26           -0.7237    -2.1097     2.7940 C.ar    
  27 C27           -1.9335    -2.2332     3.4605 C.ar    
  28 C28           -1.9385    -2.2959     4.8409 C.ar    
  29 N29           -0.8110    -2.2393     5.5228 N.ar    
  30 C30            0.3576    -2.1277     4.9224 C.ar    
  31 H31            0.1676     2.6820    -0.7454 H       
  32 H32           -0.3549     2.4448     0.9355 H       
  33 H33           -0.3831     0.3045    -0.8779 H       
  34 H34            0.7853    -1.2637     0.5626 H       
  35 H35            2.8730     4.1944     1.0027 H       
  36 H36            1.3079     4.4905     0.2082 H       
  37 H37            1.3646     4.0920     1.9420 H       
  38 H38            3.2980    -0.5929     4.6309 H       
  39 H39            4.2824     5.0736     3.6457 H       
  40 H40            5.5807     3.1986     6.5252 H       
  41 H41            4.2531     5.8083     5.6629 H       
  42 H42            4.8345     6.5536     7.9553 H       
  43 H43            5.6646     5.0064     8.2477 H       
  44 H44            6.3891     7.0341     6.0842 H       
  45 H45            7.2791     6.7749     7.6038 H       
  46 H46            8.3483     5.5568     5.7272 H       
  47 H47            7.7166     4.4243     6.9466 H       
  48 H48            7.1353     3.6791     4.6542 H       
  49 H49            6.3051     5.2262     4.3617 H       
  50 H50            2.7934     5.2210     7.4601 H       
  51 H51            1.7117    -2.3043     1.8489 H       
  52 H52            2.5257    -2.4900     3.4209 H       
  53 H53           -0.6893    -2.0580     1.7158 H       
  54 H54           -2.8601    -2.2794     2.9077 H       
  55 H55           -2.8765    -2.3921     5.3674 H       
  56 H56            1.2598    -2.0843     5.5145 H       
@<TRIPOS>BOND
   1    1    2 1
   2    1    6 1
   3    1   31 1
   4    1   32 1
   5    2    3 2
   6    2   33 1
   7    3    4 1
   8    3   34 1
   9    4    5 ar
  10    4    8 ar
  11    5    6 1
  12    5   11 ar
  13    6    7 1
  14    7   35 1
  15    7   36 1
  16    7   37 1
  17    8    9 ar
  18    8   24 1
  19    9   10 ar
  20    9   38 1
  21   10   11 ar
  22   10   12 1
  23   11   15 1
  24   12   13 am
  25   12   16 2
  26   13   14 1
  27   13   17 1
  28   14   15 2
  29   14   39 1
  30   17   18 1
  31   17   22 1
  32   17   40 1
  33   18   19 1
  34   18   23 1
  35   18   41 1
  36   19   20 1
  37   19   42 1
  38   19   43 1
  39   20   21 1
  40   20   44 1
  41   20   45 1
  42   21   22 1
  43   21   46 1
  44   21   47 1
  45   22   48 1
  46   22   49 1
  47   23   50 1
  48   24   25 1
  49   24   51 1
  50   24   52 1
  51   25   26 ar
  52   25   30 ar
  53   26   27 ar
  54   26   53 1
  55   27   28 ar
  56   27   54 1
  57   28   29 ar
  58   28   55 1
  59   29   30 ar
  60   30   56 1

#	End of record

