#	Name: ASD09890104
#	Creating user name:	WinNT
#	Creation time:	15. 06. 2019 21:24

#	Modifying user name:	WinNT
#	Modification time:	15. 06. 2019 21:24

#	Program:	/corina/corina34_cracker 3.40 0067  02.08.2006

@<TRIPOS>MOLECULE
ASD09890104
  52   56    0    0    0
SMALL
NO_CHARGES


@<TRIPOS>ATOM
   1 C1            -0.0176     1.3672     0.0647 C.2     
   2 N2            -0.0056    -0.0001     0.0346 N.pl3   
   3 C3            -1.2997    -0.4350     0.1186 C.2     
   4 N4            -2.0758     0.6195     0.1971 N.2     
   5 N5            -1.2619     1.7594     0.1686 N.2     
   6 S6            -1.8305    -2.1151     0.1204 S.3     
   7 C7            -3.6341    -1.9731     0.2538 C.3     
   8 C8             1.1332    -0.8132    -0.0657 C.ar    
   9 C9             2.0786    -0.8330     0.9555 C.ar    
  10 C10            3.1865    -1.6526     0.8111 C.ar    
  11 C11            3.3158    -2.4174    -0.3329 C.ar    
  12 N12            2.4017    -2.3754    -1.2827 N.ar    
  13 C13            1.3306    -1.6140    -1.1823 C.ar    
  14 C14           -4.2819    -3.3645     0.1440 C.3     
  15 C15           -5.0381    -3.6042     1.4670 C.3     
  16 C16           -5.3145    -2.1801     2.0099 C.3     
  17 C17           -4.0192    -1.4158     1.6397 C.3     
  18 O18            1.0701     2.1752     0.0035 O.3     
  19 C19            0.8650     3.5148    -0.0919 C.ar    
  20 C20           -0.4191     4.0073    -0.2838 C.ar    
  21 C21           -0.6302     5.3665    -0.3815 C.ar    
  22 C22            0.4468     6.2463    -0.2869 C.ar    
  23 C23            1.7346     5.7491    -0.0937 C.ar    
  24 C24            1.9391     4.3892     0.0084 C.ar    
  25 C25            0.2229     7.7091    -0.3920 C.ar    
  26 C26            1.2992     8.5894    -0.2975 C.ar    
  27 C27            1.0864     9.9491    -0.3963 C.ar    
  28 C28           -0.1948    10.4396    -0.5892 C.ar    
  29 C29           -1.2678     9.5681    -0.6833 C.ar    
  30 C30           -1.0635     8.2067    -0.5914 C.ar    
  31 F31           -0.3987    11.7716    -0.6855 F       
  32 H32           -4.0160    -1.3204    -0.5312 H       
  33 H33            1.9520    -0.2244     1.8387 H       
  34 H34            3.9405    -1.6930     1.5833 H       
  35 H35            4.1772    -3.0580    -0.4508 H       
  36 H36            0.6035    -1.6063    -1.9808 H       
  37 H37           -4.9789    -3.3868    -0.6938 H       
  38 H38           -3.5126    -4.1251     0.0105 H       
  39 H39           -5.9746    -4.1301     1.2813 H       
  40 H40           -4.4167    -4.1647     2.1654 H       
  41 H41           -6.1788    -1.7386     1.5137 H       
  42 H42           -5.4563    -2.1994     3.0905 H       
  43 H43           -3.2333    -1.6230     2.3660 H       
  44 H44           -4.2121    -0.3447     1.5801 H       
  45 H45           -1.2532     3.3251    -0.3571 H       
  46 H46           -1.6290     5.7490    -0.5315 H       
  47 H47            2.5709     6.4285    -0.0200 H       
  48 H48            2.9366     4.0034     0.1585 H       
  49 H49            2.2983     8.2079    -0.1468 H       
  50 H50            1.9199    10.6320    -0.3228 H       
  51 H51           -2.2650     9.9548    -0.8330 H       
  52 H52           -1.9004     7.5280    -0.6652 H       
@<TRIPOS>BOND
   1    1    2 1
   2    1   18 1
   3    1    5 2
   4    2    3 1
   5    2    8 1
   6    3    4 2
   7    3    6 1
   8    4    5 1
   9    6    7 1
  10    7   14 1
  11    7   17 1
  12    7   32 1
  13    8    9 ar
  14    8   13 ar
  15    9   10 ar
  16    9   33 1
  17   10   11 ar
  18   10   34 1
  19   11   12 ar
  20   11   35 1
  21   12   13 ar
  22   13   36 1
  23   14   15 1
  24   14   37 1
  25   14   38 1
  26   15   16 1
  27   15   39 1
  28   15   40 1
  29   16   17 1
  30   16   41 1
  31   16   42 1
  32   17   43 1
  33   17   44 1
  34   18   19 1
  35   19   20 ar
  36   19   24 ar
  37   20   21 ar
  38   20   45 1
  39   21   22 ar
  40   21   46 1
  41   22   23 ar
  42   22   25 1
  43   23   24 ar
  44   23   47 1
  45   24   48 1
  46   25   26 ar
  47   25   30 ar
  48   26   27 ar
  49   26   49 1
  50   27   28 ar
  51   27   50 1
  52   28   29 ar
  53   28   31 1
  54   29   30 ar
  55   29   51 1
  56   30   52 1

#	End of record

