#	Name: ASD06020091
#	Creating user name:	WinNT
#	Creation time:	15. 06. 2019 21:04

#	Modifying user name:	WinNT
#	Modification time:	15. 06. 2019 21:04

#	Program:	/corina/corina34_cracker 3.40 0067  02.08.2006

@<TRIPOS>MOLECULE
ASD06020091
  36   38    0    0    0
SMALL
NO_CHARGES


@<TRIPOS>ATOM
   1 N1            -0.0162     1.3436     0.0094 N.am    
   2 C2             0.0021    -0.0041     0.0020 C.2     
   3 O3             1.0631    -0.5976    -0.0113 O.2     
   4 N4            -1.1558    -0.6938     0.0094 N.am    
   5 C5            -1.1360    -2.1586     0.0013 C.3     
   6 C6            -2.5713    -2.6882     0.0122 C.3     
   7 O7            -3.2269    -2.3123    -1.2007 O.3     
   8 C8             1.1816     2.0570     0.0018 C.ar    
   9 C9             1.1582     3.4549     0.0096 C.ar    
  10 C10            2.3643     4.1655     0.0023 C.ar    
  11 C11            3.5607     3.4049    -0.0127 C.ar    
  12 C12            3.4919     2.0473    -0.0194 C.ar    
  13 N13            2.3327     1.4083    -0.0071 N.ar    
  14 S14           -0.1671     4.6129     0.0279 S.3     
  15 C15            0.9831     5.9438     0.0246 C.2     
  16 N16            2.1935     5.4883     0.0110 N.2     
  17 C17            0.6188     7.3760     0.0349 C.ar    
  18 C18            1.6162     8.3540     0.0311 C.ar    
  19 C19            1.2686     9.6901     0.0408 C.ar    
  20 C20           -0.0640    10.0623     0.0543 C.ar    
  21 C21           -1.0576     9.1007     0.0586 C.ar    
  22 C22           -0.7253     7.7587     0.0427 C.ar    
  23 F23           -1.6970     6.8201     0.0408 F       
  24 Cl24           3.2891     7.8904     0.0147 Cl      
  25 H25           -0.8627     1.8171     0.0160 H       
  26 H26           -2.0023    -0.2203     0.0200 H       
  27 H27           -0.6258    -2.5101    -0.8955 H       
  28 H28           -0.6088    -2.5197     0.8844 H       
  29 H29           -2.5571    -3.7749     0.0958 H       
  30 H30           -3.1082    -2.2655     0.8614 H       
  31 H31           -4.1431    -2.6153    -1.2628 H       
  32 H32            4.5202     3.9007    -0.0192 H       
  33 H33            4.4075     1.4747    -0.0309 H       
  34 H34            2.0390    10.4470     0.0382 H       
  35 H35           -0.3294    11.1091     0.0618 H       
  36 H36           -2.0957     9.3986     0.0698 H       
@<TRIPOS>BOND
   1    1    2 am
   2    1    8 1
   3    1   25 1
   4    2    3 2
   5    2    4 am
   6    4    5 1
   7    4   26 1
   8    5    6 1
   9    5   27 1
  10    5   28 1
  11    6    7 1
  12    6   29 1
  13    6   30 1
  14    7   31 1
  15    8    9 ar
  16    8   13 ar
  17    9   10 ar
  18    9   14 1
  19   10   11 ar
  20   10   16 1
  21   11   12 ar
  22   11   32 1
  23   12   13 ar
  24   12   33 1
  25   14   15 1
  26   15   16 2
  27   15   17 1
  28   17   18 ar
  29   17   22 ar
  30   18   19 ar
  31   18   24 1
  32   19   20 ar
  33   19   34 1
  34   20   21 ar
  35   20   35 1
  36   21   22 ar
  37   21   36 1
  38   22   23 1

#	End of record

