#	Name: ASD08170132
#	Creating user name:	WinNT
#	Creation time:	15. 06. 2019 21:17

#	Modifying user name:	WinNT
#	Modification time:	15. 06. 2019 21:17

#	Program:	/corina/corina34_cracker 3.40 0067  02.08.2006

@<TRIPOS>MOLECULE
ASD08170132
  70   73    0    0    0
SMALL
NO_CHARGES


@<TRIPOS>ATOM
   1 C1            -0.0184     1.5028     0.0103 C.3     
   2 C2             1.3963     3.5622     0.0079 C.3     
   3 C3             2.8317     4.0918    -0.0030 C.3     
   4 C4             2.8112     5.5986     0.0053 C.2     
   5 C5             0.0021    -0.0041     0.0020 C.2     
   6 S6             2.7835     6.6466    -1.4134 S.3     
   7 C7             2.7740     8.0128    -0.3799 C.2     
   8 N8             2.7912     7.6028     0.8524 N.2     
   9 N9             2.8052     6.3568     1.0554 N.2     
  10 S10            0.0026    -1.0367    -1.4281 S.3     
  11 N11            0.0281    -0.7735     1.0436 N.2     
  12 N12            0.0423    -2.0172     0.8270 N.2     
  13 C13            0.0316    -2.4140    -0.4097 C.2     
  14 N14            0.0439    -3.7376    -0.8365 N.am    
  15 C15            0.0694    -4.7369     0.0675 C.2     
  16 O16            0.0817    -4.4819     1.2531 O.2     
  17 N17            2.7522     9.3409    -0.7921 N.am    
  18 C18            2.7468    10.3305     0.1228 C.2     
  19 C19            2.7231    11.7696    -0.3239 C.3     
  20 O20            2.7611    10.0628     1.3057 O.2     
  21 C21            0.0826    -6.1711    -0.3950 C.3     
  22 C22            2.7215    12.6843     0.9026 C.3     
  23 C23            0.1114    -7.0989     0.8213 C.3     
  24 C24            1.4170     2.0324    -0.0006 C.3     
  25 C25           -1.1683    -6.9435     1.6019 C.2     
  26 O26           -1.3660    -7.6644     2.7168 O.3     
  27 C27            4.0183    12.5210     1.6527 C.2     
  28 O28            4.8577    11.7519     1.2479 O.2     
  29 C29            0.2484    -8.5272     0.3605 C.ar    
  30 C30            1.3363    -9.2808     0.7596 C.ar    
  31 C31            1.4620   -10.5909     0.3369 C.ar    
  32 C32            0.4996   -11.1475    -0.4846 C.ar    
  33 C33           -0.5888   -10.3941    -0.8830 C.ar    
  34 C34           -0.7167    -9.0854    -0.4568 C.ar    
  35 O35           -2.0162    -6.1701     1.2243 O.2     
  36 C36            2.5741    14.1173     0.4603 C.ar    
  37 C37            1.4953    14.8663     0.8917 C.ar    
  38 C38            3.5206    14.6845    -0.3724 C.ar    
  39 C39            3.3854    15.9991    -0.7781 C.ar    
  40 C40            2.3034    16.7462    -0.3516 C.ar    
  41 C41            1.3600    16.1808     0.4859 C.ar    
  42 O42            4.2410    13.2299     2.7705 O.3     
  43 H43           -0.5455     1.8639    -0.8728 H       
  44 H44           -0.5286     1.8543     0.9071 H       
  45 H45            0.8861     3.9137     0.9047 H       
  46 H46            0.8691     3.9233    -0.8752 H       
  47 H47            3.3588     3.7307     0.8801 H       
  48 H48            3.3418     3.7402    -0.8998 H       
  49 H49            0.0340    -3.9415    -1.7848 H       
  50 H50            2.7408     9.5550    -1.7382 H       
  51 H51            3.6049    11.9764    -0.9302 H       
  52 H52            1.8252    11.9520    -0.9143 H       
  53 H53           -0.8126    -6.3714    -0.9836 H       
  54 H54            0.9670    -6.3473    -1.0073 H       
  55 H55            1.8891    12.4175     1.5538 H       
  56 H56            0.9583    -6.8392     1.4564 H       
  57 H57            1.9442     1.6713     0.8825 H       
  58 H58            1.9272     1.6808    -0.8974 H       
  59 H59           -2.2022    -7.5304     3.1837 H       
  60 H60            2.0882    -8.8460     1.4014 H       
  61 H61            2.3124   -11.1795     0.6481 H       
  62 H62            0.5982   -12.1709    -0.8155 H       
  63 H63           -1.3405   -10.8289    -1.5251 H       
  64 H64           -1.5670    -8.4968    -0.7680 H       
  65 H65            0.7580    14.4244     1.5455 H       
  66 H66            4.3659    14.1008    -0.7056 H       
  67 H67            4.1252    16.4424    -1.4280 H       
  68 H68            2.1979    17.7733    -0.6683 H       
  69 H69            0.5147    16.7646     0.8192 H       
  70 H70            5.0874    13.0912     3.2171 H       
@<TRIPOS>BOND
   1    1    5 1
   2    1   24 1
   3    1   43 1
   4    1   44 1
   5    2    3 1
   6    2   24 1
   7    2   45 1
   8    2   46 1
   9    3    4 1
  10    3   47 1
  11    3   48 1
  12    4    6 1
  13    4    9 2
  14    5   10 1
  15    5   11 2
  16    6    7 1
  17    7    8 2
  18    7   17 1
  19    8    9 1
  20   10   13 1
  21   11   12 1
  22   12   13 2
  23   13   14 1
  24   14   15 am
  25   14   49 1
  26   15   16 2
  27   15   21 1
  28   17   18 am
  29   17   50 1
  30   18   19 1
  31   18   20 2
  32   19   22 1
  33   19   51 1
  34   19   52 1
  35   21   23 1
  36   21   53 1
  37   21   54 1
  38   22   27 1
  39   22   36 1
  40   22   55 1
  41   23   25 1
  42   23   29 1
  43   23   56 1
  44   24   57 1
  45   24   58 1
  46   25   26 1
  47   25   35 2
  48   26   59 1
  49   27   28 2
  50   27   42 1
  51   29   30 ar
  52   29   34 ar
  53   30   31 ar
  54   30   60 1
  55   31   32 ar
  56   31   61 1
  57   32   33 ar
  58   32   62 1
  59   33   34 ar
  60   33   63 1
  61   34   64 1
  62   36   37 ar
  63   36   38 ar
  64   37   41 ar
  65   37   65 1
  66   38   39 ar
  67   38   66 1
  68   39   40 ar
  69   39   67 1
  70   40   41 ar
  71   40   68 1
  72   41   69 1
  73   42   70 1

#	End of record

