#	Name: ASD01901614
#	Creating user name:	WinNT
#	Creation time:	15. 06. 2019 19:54

#	Modifying user name:	WinNT
#	Modification time:	15. 06. 2019 19:54

#	Program:	/corina/corina34_cracker 3.40 0067  02.08.2006

@<TRIPOS>MOLECULE
ASD01901614
  44   47    0    0    0
SMALL
NO_CHARGES


@<TRIPOS>ATOM
   1 C1            -0.4979     1.6429     1.9920 C.3     
   2 O2            -0.4186     0.2538     1.6665 O.3     
   3 C3             0.1900    -0.0129     0.4014 C.3     
   4 H4             0.9195     0.7654     0.1779 H       
   5 C5            -0.8847    -0.0326    -0.6874 C.3     
   6 C6             0.8922    -1.3714     0.4495 C.3     
   7 O7            -0.0797    -2.4040     0.6267 O.3     
   8 C8             0.3799    -3.6770     0.6903 C.ar    
   9 N9             1.6719    -3.9188     0.5954 N.ar    
  10 C10            2.1780    -5.1443     0.6514 C.ar    
  11 C11            1.3903    -6.2414     0.8114 C.ar    
  12 C12           -0.0040    -6.0664     0.9210 C.ar    
  13 C13           -0.8778    -7.1468     1.0878 C.ar    
  14 C14           -2.2342    -6.9099     1.1893 C.ar    
  15 N15           -3.1114    -7.9811     1.3561 N.pl3   
  16 C16           -4.4160    -7.8999     0.8603 C.2     
  17 N17           -4.9073    -6.9295     0.1366 N.2     
  18 N18           -6.2450    -7.1921    -0.1743 N.pl3   
  19 H19           -6.8219    -6.6176    -0.7016 H       
  20 C20           -6.6120    -8.3870     0.3819 C.ar    
  21 N21           -7.7417    -9.0846     0.3921 N.ar    
  22 C22           -7.7959   -10.2360     1.0320 C.ar    
  23 C23           -6.6801   -10.7283     1.6982 C.ar    
  24 N24           -5.5505   -10.0504     1.6994 N.ar    
  25 C25           -5.4775    -8.8903     1.0527 C.ar    
  26 C26           -2.7375    -5.6052     1.1268 C.ar    
  27 C27           -1.9056    -4.5408     0.9646 C.ar    
  28 C28           -0.5222    -4.7468     0.8641 C.ar    
  29 H29            0.5057     2.0670     2.0222 H       
  30 H30           -1.0883     2.1602     1.2357 H       
  31 H31           -0.9718     1.7613     2.9665 H       
  32 H32           -0.4205    -0.2360    -1.6525 H       
  33 H33           -1.6142    -0.8110    -0.4639 H       
  34 H34           -1.3849     0.9352    -0.7217 H       
  35 H35            1.4305    -1.5355    -0.4840 H       
  36 H36            1.5954    -1.3877     1.2821 H       
  37 H37            3.2468    -5.2743     0.5671 H       
  38 H38            1.8252    -7.2290     0.8535 H       
  39 H39           -0.4951    -8.1555     1.1363 H       
  40 H40           -2.8165    -8.7824     1.8163 H       
  41 H41           -8.7159   -10.8016     1.0388 H       
  42 H42           -6.7395   -11.6726     2.2188 H       
  43 H43           -3.8019    -5.4410     1.2082 H       
  44 H44           -2.3091    -3.5401     0.9175 H       
@<TRIPOS>BOND
   1    1    2 1
   2    1   29 1
   3    1   30 1
   4    1   31 1
   5    2    3 1
   6    3    4 1
   7    3    5 1
   8    3    6 1
   9    5   32 1
  10    5   33 1
  11    5   34 1
  12    6    7 1
  13    6   35 1
  14    6   36 1
  15    7    8 1
  16    8   28 ar
  17    8    9 ar
  18    9   10 ar
  19   10   11 ar
  20   10   37 1
  21   11   12 ar
  22   11   38 1
  23   12   28 ar
  24   12   13 ar
  25   13   14 ar
  26   13   39 1
  27   14   15 1
  28   14   26 ar
  29   15   16 1
  30   15   40 1
  31   16   25 1
  32   16   17 2
  33   17   18 1
  34   18   19 1
  35   18   20 1
  36   20   25 ar
  37   20   21 ar
  38   21   22 ar
  39   22   23 ar
  40   22   41 1
  41   23   24 ar
  42   23   42 1
  43   24   25 ar
  44   26   27 ar
  45   26   43 1
  46   27   28 ar
  47   27   44 1

#	End of record

