#	Name: ASD01900961
#	Creating user name:	WinNT
#	Creation time:	15. 06. 2019 19:52

#	Modifying user name:	WinNT
#	Modification time:	15. 06. 2019 19:52

#	Program:	/corina/corina34_cracker 3.40 0067  02.08.2006

@<TRIPOS>MOLECULE
ASD01900961
  62   66    0    0    0
SMALL
NO_CHARGES


@<TRIPOS>ATOM
   1 C1             0.1366     0.8505    -0.2601 C.ar    
   2 C2             0.3153    -0.5043    -0.2972 C.ar    
   3 C3             1.5927    -1.0476    -0.4050 C.ar    
   4 C4             2.7052    -0.2198    -0.4693 C.ar    
   5 C5             2.5370     1.1515    -0.4271 C.ar    
   6 C6             1.2424     1.6966    -0.3324 C.ar    
   7 N7             3.6191     2.0239    -0.4688 N.pl3   
   8 C8             3.4256     3.3629    -1.0367 C.3     
   9 N9             2.1665     3.9381    -0.5622 N.am    
  10 C10            1.0971     3.1603    -0.3022 C.2     
  11 C11            2.0713     5.3226    -0.3735 C.ar    
  12 C12            2.6275     5.9096     0.7553 C.ar    
  13 C13            2.5332     7.2748     0.9407 C.ar    
  14 C14            1.8826     8.0596    -0.0001 C.ar    
  15 C15            1.3267     7.4738    -1.1281 C.ar    
  16 C16            1.4256     6.1096    -1.3179 C.ar    
  17 O17            0.0202     3.6643    -0.0453 O.2     
  18 O18            1.7893     9.4036     0.1836 O.3     
  19 C19            1.1059    10.1504    -0.8250 C.3     
  20 C20            4.5883     4.2651    -0.6123 C.3     
  21 C21            3.3990     3.2661    -2.5647 C.3     
  22 C22            3.2654     4.6710    -3.1569 C.3     
  23 N23            4.3972     5.4983    -2.7200 N.3     
  24 C24            4.4187     5.6419    -1.2588 C.3     
  25 C25            4.3741     6.8117    -3.3777 C.3     
  26 C26            5.4841     7.6691    -2.8266 C.ar    
  27 C27            6.7635     7.5565    -3.3388 C.ar    
  28 C28            7.7827     8.3420    -2.8340 C.ar    
  29 C29            7.5240     9.2410    -1.8165 C.ar    
  30 C30            6.2433     9.3549    -1.3032 C.ar    
  31 C31            5.2218     8.5714    -1.8136 C.ar    
  32 O32            1.7512    -2.3948    -0.4471 O.3     
  33 C33            0.5661    -3.1900    -0.3761 C.3     
  34 F34            5.9893    10.2329    -0.3084 F       
  35 H35           -0.8578     1.2640    -0.1794 H       
  36 H36           -0.5418    -1.1590    -0.2421 H       
  37 H37            3.6949    -0.6441    -0.5514 H       
  38 H38            4.4858     1.7523    -0.1284 H       
  39 H39            3.1334     5.2987     1.4883 H       
  40 H40            2.9657     7.7315     1.8187 H       
  41 H41            0.8201     8.0854    -1.8600 H       
  42 H42            0.9967     5.6543    -2.1983 H       
  43 H43            1.6138    10.0199    -1.7806 H       
  44 H44            0.0790     9.7941    -0.9077 H       
  45 H45            1.1034    11.2067    -0.5561 H       
  46 H46            4.5906     4.3700     0.4727 H       
  47 H47            5.5299     3.8232    -0.9383 H       
  48 H48            4.3239     2.8091    -2.9166 H       
  49 H49            2.5500     2.6575    -2.8761 H       
  50 H50            3.2609     4.6074    -4.2450 H       
  51 H51            2.3333     5.1216    -2.8159 H       
  52 H52            3.4820     6.0876    -0.9238 H       
  53 H53            5.2504     6.2842    -0.9691 H       
  54 H54            4.5132     6.6829    -4.4511 H       
  55 H55            3.4150     7.2947    -3.1910 H       
  56 H56            6.9667     6.8541    -4.1336 H       
  57 H57            8.7818     8.2530    -3.2345 H       
  58 H58            8.3206     9.8541    -1.4217 H       
  59 H59            4.2214     8.6626    -1.4170 H       
  60 H60            0.0467    -2.9853     0.5600 H       
  61 H61           -0.0862    -2.9456    -1.2145 H       
  62 H62            0.8337    -4.2458    -0.4198 H       
@<TRIPOS>BOND
   1    1    2 ar
   2    1    6 ar
   3    1   35 1
   4    2    3 ar
   5    2   36 1
   6    3    4 ar
   7    3   32 1
   8    4    5 ar
   9    4   37 1
  10    5    7 1
  11    5    6 ar
  12    6   10 1
  13    7    8 1
  14    7   38 1
  15    8    9 1
  16    8   21 1
  17    8   20 1
  18    9   10 am
  19    9   11 1
  20   10   17 2
  21   11   12 ar
  22   11   16 ar
  23   12   13 ar
  24   12   39 1
  25   13   14 ar
  26   13   40 1
  27   14   15 ar
  28   14   18 1
  29   15   16 ar
  30   15   41 1
  31   16   42 1
  32   18   19 1
  33   19   43 1
  34   19   44 1
  35   19   45 1
  36   20   24 1
  37   20   46 1
  38   20   47 1
  39   21   22 1
  40   21   48 1
  41   21   49 1
  42   22   23 1
  43   22   50 1
  44   22   51 1
  45   23   24 1
  46   23   25 1
  47   24   52 1
  48   24   53 1
  49   25   26 1
  50   25   54 1
  51   25   55 1
  52   26   27 ar
  53   26   31 ar
  54   27   28 ar
  55   27   56 1
  56   28   29 ar
  57   28   57 1
  58   29   30 ar
  59   29   58 1
  60   30   31 ar
  61   30   34 1
  62   31   59 1
  63   32   33 1
  64   33   60 1
  65   33   61 1
  66   33   62 1

#	End of record

