#	Name: ASD02030519
#	Creating user name:	WinNT
#	Creation time:	15. 06. 2019 20:15

#	Modifying user name:	WinNT
#	Modification time:	15. 06. 2019 20:15

#	Program:	/corina/corina34_cracker 3.40 0067  02.08.2006

@<TRIPOS>MOLECULE
ASD02030519
  52   55    0    0    0
SMALL
NO_CHARGES


@<TRIPOS>ATOM
   1 N1            -0.2321     1.2021     0.7857 N.am    
   2 C2            -0.3144    -0.2648     0.8230 C.3     
   3 C3            -1.4815    -0.6672     1.7330 C.3     
   4 N4            -2.6714     0.0990     1.3373 N.am    
   5 C5            -2.5892     1.5659     1.3000 C.3     
   6 C6            -1.4237     1.9686     0.3953 C.3     
   7 C7             0.9139     1.8333     1.1091 C.2     
   8 C8             2.0612     1.0609     1.6312 C.2     
   9 N9             3.1876     1.5629     2.0896 N.2     
  10 N10            2.1352    -0.2794     1.7268 N.2     
  11 C11            3.3054    -0.5689     2.2363 C.2     
  12 N12            3.9524     0.5936     2.4581 N.pl3   
  13 O13            1.0042     3.0377     0.9715 O.2     
  14 C14           -3.8175    -0.5321     1.0139 C.2     
  15 C15           -3.8537    -2.0069     0.9430 C.ar    
  16 O16           -4.8215     0.1124     0.7805 O.2     
  17 C17           -1.1468     3.4653     0.5502 C.3     
  18 C18           -1.7723     1.6553    -1.0611 C.3     
  19 C19            5.2392     0.7250     2.9975 C.ar    
  20 C20            5.7932     1.9852     3.1754 C.ar    
  21 C21            7.0627     2.1115     3.7083 C.ar    
  22 C22            7.7803     0.9829     4.0635 C.ar    
  23 C23            7.2300    -0.2734     3.8870 C.ar    
  24 C24            5.9601    -0.4052     3.3605 C.ar    
  25 Cl25           7.7571     3.6868     3.9315 Cl      
  26 C26           -4.2197    -2.6442    -0.2465 C.ar    
  27 C27           -4.2506    -4.0259    -0.3048 C.ar    
  28 C28           -3.9213    -4.7748     0.8089 C.ar    
  29 C29           -3.5578    -4.1489     1.9904 C.ar    
  30 C30           -3.5169    -2.7717     2.0619 C.ar    
  31 F31           -4.5426    -1.9127    -1.3354 F       
  32 Cl32          -3.1463    -5.1005     3.3829 Cl      
  33 H33           -0.4863    -0.6472    -0.1831 H       
  34 H34            0.6156    -0.6734     1.2184 H       
  35 H35           -1.6799    -1.7334     1.6236 H       
  36 H36           -1.2307    -0.4438     2.7700 H       
  37 H37           -3.5191     1.9745     0.9046 H       
  38 H38           -2.4172     1.9484     2.3061 H       
  39 H39            3.6832    -1.5591     2.4444 H       
  40 H40           -0.7669     3.6627     1.5526 H       
  41 H41           -0.4062     3.7760    -0.1867 H       
  42 H42           -2.0701     4.0236     0.3951 H       
  43 H43           -2.6636     2.2126    -1.3493 H       
  44 H44           -0.9403     1.9432    -1.7038 H       
  45 H45           -1.9612     0.5872    -1.1679 H       
  46 H46            5.2334     2.8661     2.8976 H       
  47 H47            8.7721     1.0834     4.4790 H       
  48 H48            7.7925    -1.1525     4.1648 H       
  49 H49            5.5311    -1.3868     3.2234 H       
  50 H50           -4.5330    -4.5203    -1.2226 H       
  51 H51           -3.9478    -5.8533     0.7582 H       
  52 H52           -3.2333    -2.2859     2.9839 H       
@<TRIPOS>BOND
   1    1    2 1
   2    1    7 am
   3    1    6 1
   4    2    3 1
   5    2   33 1
   6    2   34 1
   7    3    4 1
   8    3   35 1
   9    3   36 1
  10    4    5 1
  11    4   14 am
  12    5    6 1
  13    5   37 1
  14    5   38 1
  15    6   17 1
  16    6   18 1
  17    7    8 1
  18    7   13 2
  19    8    9 2
  20    8   10 1
  21    9   12 1
  22   10   11 2
  23   11   12 1
  24   11   39 1
  25   12   19 1
  26   14   15 1
  27   14   16 2
  28   15   26 ar
  29   15   30 ar
  30   17   40 1
  31   17   41 1
  32   17   42 1
  33   18   43 1
  34   18   44 1
  35   18   45 1
  36   19   20 ar
  37   19   24 ar
  38   20   21 ar
  39   20   46 1
  40   21   22 ar
  41   21   25 1
  42   22   23 ar
  43   22   47 1
  44   23   24 ar
  45   23   48 1
  46   24   49 1
  47   26   27 ar
  48   26   31 1
  49   27   28 ar
  50   27   50 1
  51   28   29 ar
  52   28   51 1
  53   29   30 ar
  54   29   32 1
  55   30   52 1

#	End of record

