#	Name: ASD07300407
#	Creating user name:	WinNT
#	Creation time:	15. 06. 2019 21:09

#	Modifying user name:	WinNT
#	Modification time:	15. 06. 2019 21:09

#	Program:	/corina/corina34_cracker 3.40 0067  02.08.2006

@<TRIPOS>MOLECULE
ASD07300407
  17   18    0    0    0
SMALL
NO_CHARGES


@<TRIPOS>ATOM
   1 C1            -0.0170     1.4022     0.0098 C.ar    
   2 C2             0.0021    -0.0041     0.0020 C.ar    
   3 C3             1.2200    -0.6699    -0.0125 C.ar    
   4 C4             2.3798     0.0870    -0.0188 C.ar    
   5 C5             2.2913     1.4695    -0.0106 C.ar    
   6 N6             1.1270     2.0821     0.0025 N.ar    
   7 C7            -2.0826     0.7173     0.0345 C.2     
   8 N8            -1.3213     1.7757     0.0297 N.2     
   9 N9            -1.3185    -0.4074     0.0124 N.pl3   
  10 C10           -1.8055    -1.7891     0.0097 C.3     
  11 Cl11          -3.8182     0.7405     0.0584 Cl      
  12 H12            1.2620    -1.7491    -0.0183 H       
  13 H13            3.3454    -0.3966    -0.0298 H       
  14 H14            3.1975     2.0571    -0.0156 H       
  15 H15           -1.9164    -2.1373     1.0366 H       
  16 H16           -2.7705    -1.8332    -0.4952 H       
  17 H17           -1.0918    -2.4248    -0.5144 H       
@<TRIPOS>BOND
   1    1    2 ar
   2    1    6 ar
   3    1    8 1
   4    2    3 ar
   5    2    9 1
   6    3    4 ar
   7    3   12 1
   8    4    5 ar
   9    4   13 1
  10    5    6 ar
  11    5   14 1
  12    7    8 2
  13    7    9 1
  14    7   11 1
  15    9   10 1
  16   10   15 1
  17   10   16 1
  18   10   17 1

#	End of record

