#	Name: ASD01913568
#	Creating user name:	WinNT
#	Creation time:	15. 06. 2019 20:01

#	Modifying user name:	WinNT
#	Modification time:	15. 06. 2019 20:01

#	Program:	/corina/corina34_cracker 3.40 0067  02.08.2006

@<TRIPOS>MOLECULE
ASD01913568
  37   39    0    0    0
SMALL
NO_CHARGES


@<TRIPOS>ATOM
   1 C1            -0.5546     1.3707    -1.0130 C.ar    
   2 C2            -0.5215    -0.0215    -0.9887 C.ar    
   3 C3             0.1935    -0.6814    -1.9854 C.ar    
   4 N4             0.8105     0.0328    -2.9119 N.ar    
   5 C5             0.7550     1.3495    -2.9000 C.ar    
   6 N6             0.0894     2.0109    -1.9746 N.ar    
   7 C7            -1.2405    -2.1280    -0.0476 C.ar    
   8 C8            -0.2668    -2.9062     0.5766 C.ar    
   9 C9            -0.3538    -4.2843     0.5036 C.ar    
  10 N10           -1.3392    -4.8679    -0.1450 N.ar    
  11 C11           -2.2891    -4.1667    -0.7547 C.ar    
  12 C12           -2.2719    -2.7769    -0.7264 C.ar    
  13 C13           -3.3767    -4.8726    -1.4712 C.2     
  14 N14           -3.3995    -6.2198    -1.5025 N.am    
  15 N15           -1.1879    -0.7377     0.0099 N.pl3   
  16 O16           -4.2482    -4.2370    -2.0307 O.2     
  17 C17           -4.4230    -6.8842    -2.1769 C.ar    
  18 C18           -1.8309    -0.0255     1.1169 C.3     
  19 C19           -4.4406    -8.2761    -2.2055 C.ar    
  20 C20           -5.4642    -8.9224    -2.8796 C.ar    
  21 C21           -6.4361    -8.1520    -3.5028 C.ar    
  22 C22           -6.3554    -6.7751    -3.4333 C.ar    
  23 N23           -5.3722    -6.1863    -2.7797 N.ar    
  24 F24           -3.4733    -8.9864    -1.5851 F       
  25 H25           -1.1017     1.9190    -0.2604 H       
  26 H26            0.2436    -1.7601    -2.0011 H       
  27 H27            1.2704     1.9028    -3.6711 H       
  28 H28            0.5466    -2.4380     1.1109 H       
  29 H29            0.3985    -4.8909     0.9858 H       
  30 H30           -3.0450    -2.2086    -1.2222 H       
  31 H31           -2.7037    -6.7272    -1.0559 H       
  32 H32           -2.8618     0.2065     0.8497 H       
  33 H33           -1.8190    -0.6528     2.0082 H       
  34 H34           -1.2903     0.8997     1.3166 H       
  35 H35           -5.5046   -10.0009    -2.9196 H       
  36 H36           -7.2472    -8.6245    -4.0369 H       
  37 H37           -7.1097    -6.1722    -3.9169 H       
@<TRIPOS>BOND
   1    1    2 ar
   2    1    6 ar
   3    1   25 1
   4    2    3 ar
   5    2   15 1
   6    3    4 ar
   7    3   26 1
   8    4    5 ar
   9    5    6 ar
  10    5   27 1
  11    7    8 ar
  12    7   12 ar
  13    7   15 1
  14    8    9 ar
  15    8   28 1
  16    9   10 ar
  17    9   29 1
  18   10   11 ar
  19   11   12 ar
  20   11   13 1
  21   12   30 1
  22   13   14 am
  23   13   16 2
  24   14   17 1
  25   14   31 1
  26   15   18 1
  27   17   19 ar
  28   17   23 ar
  29   18   32 1
  30   18   33 1
  31   18   34 1
  32   19   20 ar
  33   19   24 1
  34   20   21 ar
  35   20   35 1
  36   21   22 ar
  37   21   36 1
  38   22   23 ar
  39   22   37 1

#	End of record

