#	Name: ASD01914038
#	Creating user name:	WinNT
#	Creation time:	15. 06. 2019 20:02

#	Modifying user name:	WinNT
#	Modification time:	15. 06. 2019 20:02

#	Program:	/corina/corina34_cracker 3.40 0067  02.08.2006

@<TRIPOS>MOLECULE
ASD01914038
  55   57    0    0    0
SMALL
NO_CHARGES


@<TRIPOS>ATOM
   1 C1            -0.0167     1.3828     0.0096 C.ar    
   2 C2             0.0021    -0.0041     0.0020 C.ar    
   3 C3             1.2125    -0.6811    -0.0132 C.ar    
   4 C4             2.3804     1.4126    -0.0131 C.ar    
   5 C5             1.1700     2.0896     0.0021 C.ar    
   6 O6             3.5487     2.1084    -0.0201 O.3     
   7 C7             4.7575     1.3465    -0.0358 C.3     
   8 C8             5.9400     2.2807    -0.0415 C.ar    
   9 N9             7.1611     1.7816    -0.0559 N.ar    
  10 C10            8.2280     2.5536    -0.0614 C.ar    
  11 C11            8.0987     3.9428    -0.0518 C.ar    
  12 C12            6.8153     4.5024    -0.0366 C.ar    
  13 C13            5.7272     3.6478    -0.0374 C.ar    
  14 C14            9.2966     4.8092    -0.0571 C.2     
  15 N15           10.5266     4.2585    -0.0713 N.am    
  16 O16            9.1721     6.0183    -0.0486 O.2     
  17 C17            2.3992     0.0257    -0.0208 C.ar    
  18 C18           11.7136     5.1171    -0.0766 C.3     
  19 O19           -1.1662    -0.6999     0.0099 O.3     
  20 C20           -1.0721    -2.1258     0.0013 C.3     
  21 C21           12.0404     5.5267    -1.5141 C.3     
  22 C22           12.8984     4.3531     0.5179 C.3     
  23 C23           14.1380     5.2498     0.5125 C.3     
  24 C24           15.3228     4.4857     1.1070 C.3     
  25 C25           14.9960     4.0762     2.5444 C.3     
  26 C26           13.7563     3.1794     2.5499 C.3     
  27 C27           12.5715     3.9435     1.9554 C.3     
  28 H28           -0.9593     1.9100     0.0170 H       
  29 H29            1.2271    -1.7610    -0.0188 H       
  30 H30            1.1553     3.1695     0.0077 H       
  31 H31            4.7992     0.7130     0.8502 H       
  32 H32            4.7825     0.7232    -0.9297 H       
  33 H33            9.2116     2.1075    -0.0732 H       
  34 H34            6.6782     5.5737    -0.0287 H       
  35 H35            4.7224     4.0436    -0.0259 H       
  36 H36           10.6259     3.2936    -0.0781 H       
  37 H37            3.3417    -0.5015    -0.0320 H       
  38 H38           11.5199     6.0085     0.5201 H       
  39 H39           -2.0735    -2.5561     0.0090 H       
  40 H40           -0.5443    -2.4497    -0.8957 H       
  41 H41           -0.5266    -2.4592     0.8842 H       
  42 H42           12.2342     4.6353    -2.1107 H       
  43 H43           11.1964     6.0710    -1.9376 H       
  44 H44           12.9236     6.1655    -1.5180 H       
  45 H45           13.0921     3.4617    -0.0787 H       
  46 H46           14.3709     5.5416    -0.5116 H       
  47 H47           13.9443     6.1412     1.1091 H       
  48 H48           15.5165     3.5943     0.5103 H       
  49 H49           16.2059     5.1246     1.1031 H       
  50 H50           15.8400     3.5318     2.9680 H       
  51 H51           14.8022     4.9675     3.1411 H       
  52 H52           13.9500     2.2880     1.9533 H       
  53 H53           13.5235     2.8877     3.5740 H       
  54 H54           12.3778     4.8349     2.5521 H       
  55 H55           11.6884     3.3047     1.9593 H       
@<TRIPOS>BOND
   1    1    2 ar
   2    1    5 ar
   3    1   28 1
   4    2    3 ar
   5    2   19 1
   6    3   17 ar
   7    3   29 1
   8    4    5 ar
   9    4    6 1
  10    4   17 ar
  11    5   30 1
  12    6    7 1
  13    7    8 1
  14    7   31 1
  15    7   32 1
  16    8    9 ar
  17    8   13 ar
  18    9   10 ar
  19   10   11 ar
  20   10   33 1
  21   11   12 ar
  22   11   14 1
  23   12   13 ar
  24   12   34 1
  25   13   35 1
  26   14   15 am
  27   14   16 2
  28   15   18 1
  29   15   36 1
  30   17   37 1
  31   18   21 1
  32   18   22 1
  33   18   38 1
  34   19   20 1
  35   20   39 1
  36   20   40 1
  37   20   41 1
  38   21   42 1
  39   21   43 1
  40   21   44 1
  41   22   23 1
  42   22   27 1
  43   22   45 1
  44   23   24 1
  45   23   46 1
  46   23   47 1
  47   24   25 1
  48   24   48 1
  49   24   49 1
  50   25   26 1
  51   25   50 1
  52   25   51 1
  53   26   27 1
  54   26   52 1
  55   26   53 1
  56   27   54 1
  57   27   55 1

#	End of record

