#	Name: ASD06170182
#	Creating user name:	WinNT
#	Creation time:	15. 06. 2019 21:05

#	Modifying user name:	WinNT
#	Modification time:	15. 06. 2019 21:05

#	Program:	/corina/corina34_cracker 3.40 0067  02.08.2006

@<TRIPOS>MOLECULE
ASD06170182
  58   62    0    0    0
SMALL
NO_CHARGES


@<TRIPOS>ATOM
   1 C1            -0.1831     1.5020    -0.5663 C.2     
   2 C2            -0.1630    -0.0048    -0.5694 C.3     
   3 O3             0.7170     2.1216    -1.0926 O.2     
   4 N4            -1.2040     2.1612     0.0165 N.am    
   5 C5             2.2281    -0.7226    -0.6906 C.2     
   6 N6             1.0377    -0.4758    -1.2642 N.am    
   7 C7             1.1391    -0.7564    -2.7009 C.3     
   8 C8             2.5564    -1.2119    -2.9430 C.ar    
   9 C9             3.2397    -1.6079    -4.0695 C.ar    
  10 C10            4.5703    -1.9795    -3.9762 C.ar    
  11 C11            5.2157    -1.9543    -2.7523 C.ar    
  12 C12            4.5399    -1.5588    -1.6167 C.ar    
  13 C13            3.1982    -1.1823    -1.7028 C.ar    
  14 O14            2.4719    -0.5822     0.4919 O.2     
  15 C15           -1.1693     3.5579     0.1174 C.ar    
  16 C16           -2.3441     4.2911     0.0134 C.ar    
  17 C17           -2.3090     5.6692     0.1136 C.ar    
  18 C18           -1.0980     6.3198     0.3183 C.ar    
  19 C19            0.0742     5.5867     0.4220 C.ar    
  20 C20            0.0388     4.2089     0.3272 C.ar    
  21 F21           -3.4512     6.3836     0.0121 F       
  22 O22           -1.0628     7.6757     0.4164 O.3     
  23 N23           -2.0963     9.3614     4.0360 N.ar    
  24 C24           -2.0165     8.0572     3.9141 C.ar    
  25 C25           -1.6717     7.4536     2.7114 C.ar    
  26 C26           -1.4022     8.2370     1.6030 C.ar    
  27 C27           -1.4912     9.6401     1.7459 C.ar    
  28 C28           -1.2329    10.4992     0.6674 C.ar    
  29 C29           -1.3289    11.8497     0.8415 C.ar    
  30 C30           -1.6826    12.3865     2.0876 C.ar    
  31 C31           -1.9387    11.5732     3.1537 C.ar    
  32 C32           -1.8491    10.1792     3.0057 C.ar    
  33 O33           -1.7712    13.7343     2.2362 O.3     
  34 C34           -2.1357    14.2220     3.5290 C.3     
  35 O35           -1.0785    12.6826    -0.2037 O.3     
  36 C36           -0.7225    12.0746    -1.4469 C.3     
  37 H37           -0.1555    -0.3702     0.4575 H       
  38 H38           -1.0495    -0.3790    -1.0816 H       
  39 H39           -1.9629     1.6684     0.3661 H       
  40 H40            0.4396    -1.5448    -2.9788 H       
  41 H41            0.9329     0.1472    -3.2744 H       
  42 H42            2.7384    -1.6293    -5.0259 H       
  43 H43            5.1059    -2.2903    -4.8611 H       
  44 H44            6.2535    -2.2460    -2.6860 H       
  45 H45            5.0472    -1.5409    -0.6634 H       
  46 H46           -3.2847     3.7848    -0.1460 H       
  47 H47            1.0150     6.0927     0.5807 H       
  48 H48            0.9518     3.6383     0.4122 H       
  49 H49           -2.2244     7.4359     4.7727 H       
  50 H50           -1.6139     6.3774     2.6418 H       
  51 H51           -0.9591    10.0943    -0.2956 H       
  52 H52           -2.2101    12.0002     4.1078 H       
  53 H53           -1.3984    13.8943     4.2620 H       
  54 H54           -2.1700    15.3112     3.5101 H       
  55 H55           -3.1166    13.8322     3.8011 H       
  56 H56           -0.5501    12.8493    -2.1941 H       
  57 H57            0.1861    11.4867    -1.3168 H       
  58 H58           -1.5319    11.4241    -1.7782 H       
@<TRIPOS>BOND
   1    1    2 1
   2    1    3 2
   3    1    4 am
   4    2    6 1
   5    2   37 1
   6    2   38 1
   7    4   15 1
   8    4   39 1
   9    5    6 am
  10    5   13 1
  11    5   14 2
  12    6    7 1
  13    7    8 1
  14    7   40 1
  15    7   41 1
  16    8    9 ar
  17    8   13 ar
  18    9   10 ar
  19    9   42 1
  20   10   11 ar
  21   10   43 1
  22   11   12 ar
  23   11   44 1
  24   12   13 ar
  25   12   45 1
  26   15   16 ar
  27   15   20 ar
  28   16   17 ar
  29   16   46 1
  30   17   18 ar
  31   17   21 1
  32   18   19 ar
  33   18   22 1
  34   19   20 ar
  35   19   47 1
  36   20   48 1
  37   22   26 1
  38   23   24 ar
  39   23   32 ar
  40   24   25 ar
  41   24   49 1
  42   25   26 ar
  43   25   50 1
  44   26   27 ar
  45   27   28 ar
  46   27   32 ar
  47   28   29 ar
  48   28   51 1
  49   29   30 ar
  50   29   35 1
  51   30   31 ar
  52   30   33 1
  53   31   32 ar
  54   31   52 1
  55   33   34 1
  56   34   53 1
  57   34   54 1
  58   34   55 1
  59   35   36 1
  60   36   56 1
  61   36   57 1
  62   36   58 1

#	End of record

