#	Name: ASD00310122
#	Creating user name:	WinNT
#	Creation time:	15. 06. 2019 18:33

#	Modifying user name:	WinNT
#	Modification time:	15. 06. 2019 18:33

#	Program:	/corina/corina34_cracker 3.40 0067  02.08.2006

@<TRIPOS>MOLECULE
ASD00310122
  41   43    0    0    0
SMALL
NO_CHARGES


@<TRIPOS>ATOM
   1 C1             0.0021    -0.0041     0.0020 C.1     
   2 C2            -0.0173     1.4278     0.0099 C.ar    
   3 C3             1.1885     2.1517     0.0023 C.ar    
   4 C4             1.1558     3.5418     0.0096 C.ar    
   5 C5            -0.0567     4.2050     0.0242 C.ar    
   6 C6            -1.2438     3.4939     0.0322 C.ar    
   7 C7            -1.2307     2.1120     0.0193 C.ar    
   8 N8             0.0175    -1.1399    -0.0042 N.1     
   9 C9            -2.5584     4.2306     0.0492 C.3     
  10 C10           -2.4922     5.5924     0.7604 C.3     
  11 C11           -3.4045     6.1306    -0.3545 C.3     
  12 C12           -2.8450     5.0091    -1.2457 C.3     
  13 O13           -3.6476     3.4121     0.4801 O.3     
  14 O14            3.7971     2.1115    -0.0218 O.3     
  15 B15            2.5637     1.3945    -0.0139 Du      
  16 O16            2.6173    -0.0312    -0.0206 O.3     
  17 C17            3.5129    -0.5542     0.9682 C.3     
  18 C18            4.8790     0.1201     0.8107 C.3     
  19 C19            4.7184     1.6351     0.9670 C.3     
  20 C20            5.8344    -0.4054     1.8841 C.3     
  21 C21            5.4460    -0.1929    -0.5754 C.3     
  22 H22            2.0783     4.1035     0.0041 H       
  23 H23           -0.0778     5.2847     0.0298 H       
  24 H24           -2.1607     1.5629     0.0211 H       
  25 H25           -2.9590     5.5938     1.7453 H       
  26 H26           -1.4966     6.0362     0.7621 H       
  27 H27           -4.4675     6.0263    -0.1372 H       
  28 H28           -3.1368     7.1316    -0.6927 H       
  29 H29           -1.9459     5.2934    -1.7923 H       
  30 H30           -3.5967     4.5395    -1.8802 H       
  31 H31           -3.7083     2.5638     0.0198 H       
  32 H32            3.1176    -0.3494     1.9631 H       
  33 H33            3.6194    -1.6303     0.8311 H       
  34 H34            5.6846     2.1204     0.8290 H       
  35 H35            4.3344     1.8605     1.9619 H       
  36 H36            5.9469    -1.4839     1.7738 H       
  37 H37            6.8065     0.0747     1.7717 H       
  38 H38            5.4304    -0.1812     2.8713 H       
  39 H39            4.7654     0.1826    -1.3396 H       
  40 H40            6.4182     0.2871    -0.6872 H       
  41 H41            5.5583    -1.2713    -0.6870 H       
@<TRIPOS>BOND
   1    1    2 1
   2    1    8 3
   3    2    3 ar
   4    2    7 ar
   5    3    4 ar
   6    3   15 1
   7    4    5 ar
   8    4   22 1
   9    5    6 ar
  10    5   23 1
  11    6    7 ar
  12    6    9 1
  13    7   24 1
  14    9   10 1
  15    9   12 1
  16    9   13 1
  17   10   11 1
  18   10   25 1
  19   10   26 1
  20   11   12 1
  21   11   27 1
  22   11   28 1
  23   12   29 1
  24   12   30 1
  25   13   31 1
  26   14   15 1
  27   14   19 1
  28   15   16 1
  29   16   17 1
  30   17   18 1
  31   17   32 1
  32   17   33 1
  33   18   19 1
  34   18   20 1
  35   18   21 1
  36   19   34 1
  37   19   35 1
  38   20   36 1
  39   20   37 1
  40   20   38 1
  41   21   39 1
  42   21   40 1
  43   21   41 1

#	End of record

