#	Name: ASD03092923
#	Creating user name:	WinNT
#	Creation time:	15. 06. 2019 20:33

#	Modifying user name:	WinNT
#	Modification time:	15. 06. 2019 20:33

#	Program:	/corina/corina34_cracker 3.40 0067  02.08.2006

@<TRIPOS>MOLECULE
ASD03092923
  53   56    0    0    0
SMALL
NO_CHARGES


@<TRIPOS>ATOM
   1 C1            -0.0178     1.4903     0.0195 C.3     
   2 C2             0.0028    -0.0165     0.0037 C.2     
   3 C3            -0.0892    -0.8136    -1.1201 C.2     
   4 C4            -0.2241    -0.3697    -2.5072 C.2     
   5 O5            -1.3240    -0.2850    -3.0130 O.2     
   6 C6             1.0028    -0.0175    -3.3084 C.3     
   7 C7             0.5993     0.2842    -4.7530 C.3     
   8 C8             0.8405     1.7031    -5.2722 C.3     
   9 C9             1.7210     0.5504    -5.7589 C.3     
  10 C10           -0.0230    -2.2057    -0.6338 C.2     
  11 C11            0.1008    -2.1280     0.7146 C.2     
  12 C12            0.2057    -3.3023     1.6532 C.3     
  13 N13            0.1201    -0.8142     1.0833 N.pl3   
  14 C14            0.2416    -0.3578     2.4029 C.ar    
  15 C15            1.4115    -0.5896     3.1139 C.ar    
  16 C16            1.5290    -0.1384     4.4139 C.ar    
  17 C17            0.4818     0.5437     5.0081 C.ar    
  18 Cl18           0.6324     1.1090     6.6426 Cl      
  19 C19           -0.6851     0.7763     4.3014 C.ar    
  20 C20           -0.8054     0.3318     2.9994 C.ar    
  21 C21           -0.0806    -3.4395    -1.4536 C.ar    
  22 C22           -1.2373    -3.7530    -2.1659 C.ar    
  23 C23           -1.2850    -4.9026    -2.9277 C.ar    
  24 C24           -0.1881    -5.7436    -2.9851 C.ar    
  25 C25            0.9622    -5.4380    -2.2800 C.ar    
  26 C26            1.0237    -4.2879    -1.5198 C.ar    
  27 S27           -0.2566    -7.2100    -3.9595 S.o2    
  28 N28            0.2746    -6.8152    -5.4774 N.am    
  29 O29            0.7090    -8.0990    -3.4150 O.2     
  30 O30           -1.6323    -7.5416    -4.0894 O.2     
  31 H31            1.0047     1.8677     0.0155 H       
  32 H32           -0.5435     1.8557    -0.8627 H       
  33 H33           -0.5297     1.8373     0.9171 H       
  34 H34            1.4809     0.8603    -2.8737 H       
  35 H35            1.6996    -0.8556    -3.2932 H       
  36 H36           -0.2857    -0.2402    -5.1132 H       
  37 H37            0.1140     2.1125    -5.9741 H       
  38 H38            1.2867     2.4216    -4.5846 H       
  39 H39            2.7465     0.5105    -5.3915 H       
  40 H40            1.5738     0.2014    -6.7810 H       
  41 H41            1.2541    -3.5699     1.7847 H       
  42 H42           -0.2250    -3.0356     2.6184 H       
  43 H43           -0.3362    -4.1508     1.2355 H       
  44 H44            2.2288    -1.1225     2.6508 H       
  45 H45            2.4388    -0.3185     4.9673 H       
  46 H46           -1.5010     1.3089     4.7673 H       
  47 H47           -1.7148     0.5169     2.4470 H       
  48 H48           -2.0945    -3.0975    -2.1213 H       
  49 H49           -2.1805    -5.1465    -3.4800 H       
  50 H50            1.8152    -6.0986    -2.3280 H       
  51 H51            1.9238    -4.0480    -0.9733 H       
  52 H52            0.7217    -7.4809    -6.0232 H       
  53 H53            0.1387    -5.9183    -5.8208 H       
@<TRIPOS>BOND
   1    1    2 1
   2    1   31 1
   3    1   32 1
   4    1   33 1
   5    2   13 1
   6    2    3 2
   7    3    4 1
   8    3   10 1
   9    4    5 2
  10    4    6 1
  11    6    7 1
  12    6   34 1
  13    6   35 1
  14    7    9 1
  15    7    8 1
  16    7   36 1
  17    8    9 1
  18    8   37 1
  19    8   38 1
  20    9   39 1
  21    9   40 1
  22   10   11 2
  23   10   21 1
  24   11   12 1
  25   11   13 1
  26   12   41 1
  27   12   42 1
  28   12   43 1
  29   13   14 1
  30   14   20 ar
  31   14   15 ar
  32   15   16 ar
  33   15   44 1
  34   16   17 ar
  35   16   45 1
  36   17   18 1
  37   17   19 ar
  38   19   20 ar
  39   19   46 1
  40   20   47 1
  41   21   26 ar
  42   21   22 ar
  43   22   23 ar
  44   22   48 1
  45   23   24 ar
  46   23   49 1
  47   24   25 ar
  48   24   27 1
  49   25   26 ar
  50   25   50 1
  51   26   51 1
  52   27   28 am
  53   27   29 2
  54   27   30 2
  55   28   52 1
  56   28   53 1

#	End of record

