#	Name: ASD05170081
#	Creating user name:	WinNT
#	Creation time:	15. 06. 2019 20:57

#	Modifying user name:	WinNT
#	Modification time:	15. 06. 2019 20:57

#	Program:	/corina/corina34_cracker 3.40 0067  02.08.2006

@<TRIPOS>MOLECULE
ASD05170081
  46   49    0    0    0
SMALL
NO_CHARGES


@<TRIPOS>ATOM
   1 C1            -0.0167     1.3796     0.0096 C.ar    
   2 C2             0.0021    -0.0041     0.0020 C.ar    
   3 C3             1.2329    -0.6499    -0.0132 C.ar    
   4 C4             2.3913     0.1046    -0.0202 C.ar    
   5 N5             2.3390     1.4234    -0.0122 N.ar    
   6 C6             1.1871     2.0723     0.0019 C.ar    
   7 O7             1.1810     3.4295     0.0087 O.3     
   8 C8             2.4513     4.0841     0.0002 C.3     
   9 C9             2.2471     5.5771     0.0096 C.2     
  10 C10            1.0126     6.2402     0.0301 C.2     
  11 N11            3.1943     6.4860     0.0058 N.2     
  12 C12            1.3244     7.5700     0.0301 C.2     
  13 C13            0.4785     8.7729     0.0511 C.2     
  14 N14            2.6990     7.6612     0.0259 N.pl3   
  15 C15            3.3737     8.9644     0.0597 C.3     
  16 C16            2.4926    10.0059    -0.6286 C.3     
  17 N17            1.1055     9.9531    -0.1736 N.am    
  18 O18           -0.7186     8.7118     0.2585 O.2     
  19 C19            3.6133     9.3780     1.5131 C.3     
  20 F20            1.2963    -1.9993    -0.0206 F       
  21 C21            0.4103    11.1476     0.0388 C.ar    
  22 C22            0.4416    11.7590     1.2857 C.ar    
  23 C23           -0.2457    12.9388     1.4920 C.ar    
  24 C24           -0.9647    13.5118     0.4587 C.ar    
  25 C25           -0.9983    12.9056    -0.7835 C.ar    
  26 C26           -0.3083    11.7283    -0.9981 C.ar    
  27 C27           -0.3399    11.0718    -2.3542 C.3     
  28 H28           -0.9552     1.9139     0.0170 H       
  29 H29           -0.9183    -0.5691     0.0081 H       
  30 H30            3.3507    -0.3911    -0.0320 H       
  31 H31            3.0179     3.7893     0.8834 H       
  32 H32            3.0012     3.7982    -0.8965 H       
  33 H33            0.0283     5.7960     0.0426 H       
  34 H34            4.3284     8.8936    -0.4614 H       
  35 H35            2.8933    10.9983    -0.4223 H       
  36 H36            2.5189     9.8341    -1.7047 H       
  37 H37            4.2385     8.6327     2.0047 H       
  38 H38            4.1143    10.3458     1.5376 H       
  39 H39            2.6577     9.4504     2.0325 H       
  40 H40            1.0025    11.3120     2.0931 H       
  41 H41           -0.2221    13.4145     2.4613 H       
  42 H42           -1.5014    14.4346     0.6225 H       
  43 H43           -1.5612    13.3552    -1.5881 H       
  44 H44           -1.1803    10.3794    -2.4032 H       
  45 H45           -0.4523    11.8346    -3.1246 H       
  46 H46            0.5900    10.5265    -2.5157 H       
@<TRIPOS>BOND
   1    1    2 ar
   2    1    6 ar
   3    1   28 1
   4    2    3 ar
   5    2   29 1
   6    3    4 ar
   7    3   20 1
   8    4    5 ar
   9    4   30 1
  10    5    6 ar
  11    6    7 1
  12    7    8 1
  13    8    9 1
  14    8   31 1
  15    8   32 1
  16    9   11 2
  17    9   10 1
  18   10   12 2
  19   10   33 1
  20   11   14 1
  21   12   14 1
  22   12   13 1
  23   13   17 am
  24   13   18 2
  25   14   15 1
  26   15   16 1
  27   15   19 1
  28   15   34 1
  29   16   17 1
  30   16   35 1
  31   16   36 1
  32   17   21 1
  33   19   37 1
  34   19   38 1
  35   19   39 1
  36   21   22 ar
  37   21   26 ar
  38   22   23 ar
  39   22   40 1
  40   23   24 ar
  41   23   41 1
  42   24   25 ar
  43   24   42 1
  44   25   26 ar
  45   25   43 1
  46   26   27 1
  47   27   44 1
  48   27   45 1
  49   27   46 1

#	End of record

