#	Name: ASD02610036
#	Creating user name:	WinNT
#	Creation time:	15. 06. 2019 20:25

#	Modifying user name:	WinNT
#	Modification time:	15. 06. 2019 20:25

#	Program:	/corina/corina34_cracker 3.40 0067  02.08.2006

@<TRIPOS>MOLECULE
ASD02610036
 116  118    0    0    0
SMALL
NO_CHARGES


@<TRIPOS>ATOM
   1 C1            -0.3610    -0.1934     0.2924 C.3     
   2 C2            -0.2319    -1.7350     0.3490 C.3     
   3 C3             1.1866    -2.0161    -0.0884 C.2     
   4 C4             1.9252    -0.9321    -0.0317 C.2     
   5 C5             1.1105     0.2299     0.4615 C.3     
   6 C6             3.3700    -0.8623    -0.4507 C.3     
   7 C7             4.1134     0.2119     0.3141 C.3     
   8 C8             3.9069     1.6110    -0.1791 C.3     
   9 C9             2.6507     2.2423     0.3636 C.3     
  10 C10            1.4106     1.5433    -0.1694 C.3     
  11 O11           -1.1754    -2.3557    -0.5636 O.3     
  12 C12            1.6887    -3.3659    -0.5322 C.3     
  13 O13           -1.1775     0.3038     1.3853 O.3     
  14 H14            1.2996     0.3332     1.5300 H       
  15 O15            0.2697     2.4189     0.0305 O.3     
  16 C16            1.5876     1.3269    -1.6737 C.3     
  17 O17            3.8331     1.5905    -1.6060 O.3     
  18 O18            4.0688    -2.0804    -0.1398 O.3     
  19 C19            5.4728    -1.7514    -0.1133 C.3     
  20 C20            5.5841    -0.2451     0.2137 C.3     
  21 O21            3.7125     0.1561     1.6846 O.3     
  22 C22           -2.4931     0.4340     1.1529 C.2     
  23 C23           -3.4035     0.9441     2.2401 C.3     
  24 C24           -4.8410     0.9965     1.7187 C.3     
  25 C25           -5.7653     1.5144     2.8225 C.3     
  26 C26           -7.2027     1.5667     2.3011 C.3     
  27 C27           -8.1270     2.0847     3.4049 C.3     
  28 O28           -2.9474     0.1422     0.0720 O.2     
  29 O29            6.2561     0.4499    -0.8387 O.3     
  30 C30           -9.5645     2.1370     2.8836 C.3     
  31 C31          -10.4888     2.6549     3.9873 C.3     
  32 C32            6.3056    -0.0352     1.5465 C.3     
  33 C33            0.3112     3.6201    -0.5670 C.2     
  34 C34           -0.7989     4.6136    -0.3398 C.3     
  35 O35            1.2388     3.9049    -1.2871 O.2     
  36 H36            3.4340    -0.6640    -1.5206 H       
  37 C37            6.0997    -2.0350    -1.4799 C.3     
  38 O38            6.1328    -2.5180     0.8959 O.3     
  39 C39           -1.6382    -3.5703    -0.2285 C.2     
  40 C40           -2.6205    -4.2767    -1.1270 C.3     
  41 O41           -1.2672    -4.0974     0.7935 O.2     
  42 C42           -2.9843    -5.6326    -0.5187 C.3     
  43 C43           -3.9816    -6.3496    -1.4310 C.3     
  44 C44           -4.3455    -7.7056    -0.8227 C.3     
  45 C45           -5.3427    -8.4226    -1.7349 C.3     
  46 N46           -5.6912    -9.7209    -1.1525 N.am    
  47 C47           -6.5602   -10.5327    -1.7868 C.2     
  48 C48           -6.9186   -11.8682    -1.1876 C.3     
  49 N49           -8.1845   -12.3399    -1.7647 N.3     
  50 O50           -7.0538   -10.1883    -2.8397 O.2     
  51 C51           -5.8109   -12.8782    -1.4936 C.3     
  52 C52           -6.1373   -14.2128    -0.8203 C.3     
  53 C53           -5.1069   -15.2622    -1.2419 C.3     
  54 C54           -6.0973   -14.0405     0.6994 C.3     
  55 H55           -0.7554     0.1326    -0.6700 H       
  56 H56           -0.3940    -2.0927     1.3658 H       
  57 H57            4.7621     2.2182     0.1178 H       
  58 H58            2.6586     2.1759     1.4516 H       
  59 H59            2.6230     3.2919     0.0709 H       
  60 H60            0.8748    -4.0895    -0.4863 H       
  61 H61            2.0571    -3.2980    -1.5558 H       
  62 H62            2.4974    -3.6867     0.1244 H       
  63 H63            0.6257     1.0749    -2.1202 H       
  64 H64            1.9717     2.2395    -2.1293 H       
  65 H65            2.2914     0.5120    -1.8432 H       
  66 H66            3.6996     2.4610    -2.0055 H       
  67 H67            3.8212    -0.7146     2.0911 H       
  68 H68           -3.3529     0.2759     3.0997 H       
  69 H69           -3.0885     1.9441     2.5382 H       
  70 H70           -4.8916     1.6647     0.8591 H       
  71 H71           -5.1559    -0.0035     1.4206 H       
  72 H72           -5.7146     0.8461     3.6821 H       
  73 H73           -5.4503     2.5144     3.1206 H       
  74 H74           -7.2534     2.2350     1.4415 H       
  75 H75           -7.5177     0.5667     2.0030 H       
  76 H76           -8.0764     1.4164     4.2645 H       
  77 H77           -7.8121     3.0847     3.7031 H       
  78 H78            7.1842     0.2001    -0.9450 H       
  79 H79           -9.6152     2.8052     2.0240 H       
  80 H80           -9.8795     1.1370     2.5854 H       
  81 H81          -10.1738     3.6549     4.2855 H       
  82 H82          -11.5129     2.6922     3.6159 H       
  83 H83          -10.4382     1.9866     4.8470 H       
  84 H84            5.8082    -0.6147     2.3241 H       
  85 H85            7.3409    -0.3635     1.4548 H       
  86 H86            6.2817     1.0222     1.8099 H       
  87 H87           -0.5582     5.2367     0.5215 H       
  88 H88           -0.9104     5.2422    -1.2233 H       
  89 H89           -1.7311     4.0803    -0.1533 H       
  90 H90            5.5861    -1.4508    -2.2435 H       
  91 H91            7.1542    -1.7599    -1.4600 H       
  92 H92            6.0053    -3.0963    -1.7097 H       
  93 H93            6.0891    -3.4738     0.7554 H       
  94 H94           -3.5207    -3.6706    -1.2286 H       
  95 H95           -2.1714    -4.4276    -2.1087 H       
  96 H96           -2.0841    -6.2386    -0.4172 H       
  97 H97           -3.4334    -5.4816     0.4629 H       
  98 H98           -4.8819    -5.7436    -1.5325 H       
  99 H99           -3.5325    -6.5006    -2.4126 H       
 100 H100          -3.4452    -8.3116    -0.7211 H       
 101 H101          -4.7945    -7.5546     0.1590 H       
 102 H102          -6.2430    -7.8166    -1.8365 H       
 103 H103          -4.8937    -8.5736    -2.7166 H       
 104 H104          -5.2964    -9.9964    -0.3103 H       
 105 H105          -7.0278   -11.7646    -0.1081 H       
 106 H106          -8.9449   -11.7228    -1.5217 H       
 107 H107          -8.1091   -12.4440    -2.7655 H       
 108 H108          -5.7390   -13.0231    -2.5716 H       
 109 H109          -4.8611   -12.5022    -1.1134 H       
 110 H110          -7.1325   -14.5386    -1.1230 H       
 111 H111          -5.0735   -15.3221    -2.3298 H       
 112 H112          -4.1247   -14.9796    -0.8632 H       
 113 H113          -5.3885   -16.2327    -0.8332 H       
 114 H114          -6.8314   -13.2928     0.9998 H       
 115 H115          -6.3299   -14.9912     1.1791 H       
 116 H116          -5.1022   -13.7147     1.0021 H       
@<TRIPOS>BOND
   1    1    2 1
   2    1    5 1
   3    1   13 1
   4    1   55 1
   5    2    3 1
   6    2   11 1
   7    2   56 1
   8    3    4 2
   9    3   12 1
  10    4    5 1
  11    4    6 1
  12    5   10 1
  13    5   14 1
  14    6    7 1
  15    6   18 1
  16    6   36 1
  17    7   20 1
  18    7   21 1
  19    7    8 1
  20    8    9 1
  21    8   17 1
  22    8   57 1
  23    9   10 1
  24    9   58 1
  25    9   59 1
  26   10   15 1
  27   10   16 1
  28   11   39 1
  29   12   60 1
  30   12   61 1
  31   12   62 1
  32   13   22 1
  33   15   33 1
  34   16   63 1
  35   16   64 1
  36   16   65 1
  37   17   66 1
  38   18   19 1
  39   19   20 1
  40   19   37 1
  41   19   38 1
  42   20   29 1
  43   20   32 1
  44   21   67 1
  45   22   23 1
  46   22   28 2
  47   23   24 1
  48   23   68 1
  49   23   69 1
  50   24   25 1
  51   24   70 1
  52   24   71 1
  53   25   26 1
  54   25   72 1
  55   25   73 1
  56   26   27 1
  57   26   74 1
  58   26   75 1
  59   27   30 1
  60   27   76 1
  61   27   77 1
  62   29   78 1
  63   30   31 1
  64   30   79 1
  65   30   80 1
  66   31   81 1
  67   31   82 1
  68   31   83 1
  69   32   84 1
  70   32   85 1
  71   32   86 1
  72   33   34 1
  73   33   35 2
  74   34   87 1
  75   34   88 1
  76   34   89 1
  77   37   90 1
  78   37   91 1
  79   37   92 1
  80   38   93 1
  81   39   40 1
  82   39   41 2
  83   40   42 1
  84   40   94 1
  85   40   95 1
  86   42   43 1
  87   42   96 1
  88   42   97 1
  89   43   44 1
  90   43   98 1
  91   43   99 1
  92   44   45 1
  93   44  100 1
  94   44  101 1
  95   45   46 1
  96   45  102 1
  97   45  103 1
  98   46   47 am
  99   46  104 1
 100   47   48 1
 101   47   50 2
 102   48   49 1
 103   48   51 1
 104   48  105 1
 105   49  106 1
 106   49  107 1
 107   51   52 1
 108   51  108 1
 109   51  109 1
 110   52   53 1
 111   52   54 1
 112   52  110 1
 113   53  111 1
 114   53  112 1
 115   53  113 1
 116   54  114 1
 117   54  115 1
 118   54  116 1

#	End of record

