#	Name: ASD01209000
#	Creating user name:	WinNT
#	Creation time:	15. 06. 2019 19:10

#	Modifying user name:	WinNT
#	Modification time:	15. 06. 2019 19:10

#	Program:	/corina/corina34_cracker 3.40 0067  02.08.2006

@<TRIPOS>MOLECULE
ASD01209000
  55   59    0    0    0
SMALL
NO_CHARGES


@<TRIPOS>ATOM
   1 C1            -0.0187     1.5275     0.0104 C.3     
   2 C2             0.0021    -0.0041     0.0020 C.3     
   3 C3            -1.4312    -0.5350    -0.0664 C.3     
   4 C4            -1.4162    -2.0604     0.0508 C.3     
   5 C5            -2.8132    -2.5927    -0.1394 C.2     
   6 N6            -3.4713    -2.3612    -1.2925 N.am    
   7 C7            -4.7608    -2.8525    -1.4680 C.2     
   8 N8            -0.9239    -2.4435     1.3763 N.pl3   
   9 C9             0.1873    -3.2073     1.6216 C.ar    
  10 C10            0.2935    -3.3308     3.0207 C.ar    
  11 C11           -0.8296    -2.5886     3.5841 C.2     
  12 N12           -1.5091    -2.0834     2.5946 N.2     
  13 O13           -3.3452    -3.2293     0.7453 O.2     
  14 C14            0.7862    -0.4864    -1.2223 C.3     
  15 C15            2.1942     0.1136    -1.1856 C.3     
  16 O16            2.1023     1.5392    -1.1479 O.3     
  17 C17            1.4204     2.0497    -0.0005 C.3     
  18 C18            1.1348    -3.8215     0.8069 C.ar    
  19 C19            2.1549    -4.5356     1.3693 C.ar    
  20 C20            2.2614    -4.6585     2.7490 C.ar    
  21 C21            1.3479    -4.0664     3.5725 C.ar    
  22 S22            1.4941    -4.2302     5.3208 S.o2    
  23 C23            1.8169    -2.5444     5.9078 C.3     
  24 O24            0.2086    -4.6668     5.7406 O.2     
  25 O25            2.6411    -5.0493     5.5013 O.2     
  26 C26            2.1128    -2.3597     7.3975 C.3     
  27 C27            3.2381    -2.2176     6.3707 C.3     
  28 S28           -5.7488    -2.6359    -2.9103 S.3     
  29 C29           -7.0486    -3.5544    -2.1536 C.2     
  30 C30           -6.6439    -3.9267    -0.9373 C.2     
  31 N31           -5.4258    -3.5482    -0.5976 N.2     
  32 F32           -8.2483    -3.8333    -2.7087 F       
  33 H33           -0.5443     1.8896    -0.8732 H       
  34 H34           -0.5273     1.8800     0.9078 H       
  35 H35            0.4824    -0.3672     0.9106 H       
  36 H36           -2.0143    -0.1134     0.7523 H       
  37 H37           -1.8799    -0.2481    -1.0175 H       
  38 H38           -0.7613    -2.4772    -0.7145 H       
  39 H39           -3.0458    -1.8520    -2.0000 H       
  40 H40           -1.0545    -2.4748     4.6343 H       
  41 H41            0.8533    -1.5742    -1.2065 H       
  42 H42            0.2769    -0.1650    -2.1308 H       
  43 H43            2.7172    -0.2406    -0.2973 H       
  44 H44            2.7428    -0.1919    -2.0766 H       
  45 H45            1.4115     3.1390    -0.0377 H       
  46 H46            1.9333     1.7209     0.9033 H       
  47 H47            1.0634    -3.7340    -0.2672 H       
  48 H48            2.8873    -5.0106     0.7334 H       
  49 H49            3.0752    -5.2272     3.1741 H       
  50 H50            1.2575    -1.7560     5.4043 H       
  51 H51            1.7484    -1.4496     7.8740 H       
  52 H52            2.1135    -3.2511     8.0248 H       
  53 H53            3.9791    -3.0156     6.3225 H       
  54 H54            3.6140    -1.2141     6.1716 H       
  55 H55           -7.2715    -4.5045    -0.2749 H       
@<TRIPOS>BOND
   1    1    2 1
   2    1   17 1
   3    1   33 1
   4    1   34 1
   5    2    3 1
   6    2   14 1
   7    2   35 1
   8    3    4 1
   9    3   36 1
  10    3   37 1
  11    4    5 1
  12    4    8 1
  13    4   38 1
  14    5    6 am
  15    5   13 2
  16    6    7 1
  17    6   39 1
  18    7   28 1
  19    7   31 2
  20    8    9 1
  21    8   12 1
  22    9   10 ar
  23    9   18 ar
  24   10   11 1
  25   10   21 ar
  26   11   12 2
  27   11   40 1
  28   14   15 1
  29   14   41 1
  30   14   42 1
  31   15   16 1
  32   15   43 1
  33   15   44 1
  34   16   17 1
  35   17   45 1
  36   17   46 1
  37   18   19 ar
  38   18   47 1
  39   19   20 ar
  40   19   48 1
  41   20   21 ar
  42   20   49 1
  43   21   22 1
  44   22   23 1
  45   22   24 2
  46   22   25 2
  47   23   26 1
  48   23   27 1
  49   23   50 1
  50   26   27 1
  51   26   51 1
  52   26   52 1
  53   27   53 1
  54   27   54 1
  55   28   29 1
  56   29   30 2
  57   29   32 1
  58   30   31 1
  59   30   55 1

#	End of record

