#	Name: ASD05173008
#	Creating user name:	WinNT
#	Creation time:	15. 06. 2019 20:57

#	Modifying user name:	WinNT
#	Modification time:	15. 06. 2019 20:57

#	Program:	/corina/corina34_cracker 3.40 0067  02.08.2006

@<TRIPOS>MOLECULE
ASD05173008
  35   37    0    0    0
SMALL
NO_CHARGES


@<TRIPOS>ATOM
   1 C1            -0.0168     1.3875     0.0097 C.ar    
   2 C2             0.0021    -0.0041     0.0020 C.ar    
   3 C3            -1.1863    -0.7077     0.0060 C.ar    
   4 C4            -2.4178    -0.0301     0.0174 C.ar    
   5 C5            -2.4296     1.3645     0.0317 C.ar    
   6 C6            -1.2197     2.0604     0.0305 C.ar    
   7 N7            -3.5383    -0.7962     0.0084 N.2     
   8 C8            -4.5996    -0.5941     0.6981 C.2     
   9 C9            -4.7364     0.5897     1.6188 C.3     
  10 C10           -4.6760     1.8433     0.7830 C.2     
  11 N11           -3.5929     2.1253     0.0579 N.am    
  12 O12           -5.6217     2.6027     0.7701 O.2     
  13 C13           -5.7182    -1.5473     0.5866 C.ar    
  14 C14           -6.8964    -1.3638     1.3230 C.ar    
  15 C15           -7.9234    -2.2798     1.1913 C.ar    
  16 N16           -7.8104    -3.3165     0.3886 N.ar    
  17 C17           -6.7144    -3.5343    -0.3302 C.ar    
  18 C18           -5.6350    -2.6580    -0.2624 C.ar    
  19 N19            1.2226    -0.6889    -0.0102 N.pl3   
  20 C20            1.2406    -2.1538    -0.0182 C.3     
  21 Cl21           1.4746     2.2758     0.0002 Cl      
  22 C22           -6.6452    -4.6789    -1.1879 C.1     
  23 N23           -6.5903    -5.5869    -1.8683 N.1     
  24 H24           -1.1693    -1.7875    -0.0000 H       
  25 H25           -1.2262     3.1404     0.0371 H       
  26 H26           -5.6920     0.5413     2.1410 H       
  27 H27           -3.9208     0.5897     2.3418 H       
  28 H28           -3.6188     2.9224    -0.4943 H       
  29 H29           -7.0007    -0.5173     1.9855 H       
  30 H30           -8.8333    -2.1426     1.7567 H       
  31 H31           -4.7450    -2.8364    -0.8477 H       
  32 H32            2.0567    -0.1936    -0.0133 H       
  33 H33            0.7374    -2.5282     0.8733 H       
  34 H34            0.7250    -2.5186    -0.9066 H       
  35 H35            2.2726    -2.5045    -0.0273 H       
@<TRIPOS>BOND
   1    1    2 ar
   2    1   21 1
   3    1    6 ar
   4    2    3 ar
   5    2   19 1
   6    3    4 ar
   7    3   24 1
   8    4    5 ar
   9    4    7 1
  10    5    6 ar
  11    5   11 1
  12    6   25 1
  13    7    8 2
  14    8    9 1
  15    8   13 1
  16    9   10 1
  17    9   26 1
  18    9   27 1
  19   10   11 am
  20   10   12 2
  21   11   28 1
  22   13   14 ar
  23   13   18 ar
  24   14   15 ar
  25   14   29 1
  26   15   16 ar
  27   15   30 1
  28   16   17 ar
  29   17   18 ar
  30   17   22 1
  31   18   31 1
  32   19   20 1
  33   19   32 1
  34   20   33 1
  35   20   34 1
  36   20   35 1
  37   22   23 3

#	End of record

