#	Name: ASD01913593
#	Creating user name:	WinNT
#	Creation time:	15. 06. 2019 20:01

#	Modifying user name:	WinNT
#	Modification time:	15. 06. 2019 20:01

#	Program:	/corina/corina34_cracker 3.40 0067  02.08.2006

@<TRIPOS>MOLECULE
ASD01913593
  39   41    0    0    0
SMALL
NO_CHARGES


@<TRIPOS>ATOM
   1 C1            -2.8083     0.2909    -1.2466 C.ar    
   2 C2            -2.3017    -0.1541    -0.0298 C.ar    
   3 C3            -3.0948    -0.0155     1.1047 C.ar    
   4 N4            -4.2939     0.5306     0.9869 N.ar    
   5 C5            -4.7386     0.9401    -0.1842 C.ar    
   6 N6            -4.0175     0.8261    -1.2814 N.ar    
   7 C7            -0.9772    -2.0621     0.1329 C.ar    
   8 C8             0.2610    -2.6938     0.2074 C.ar    
   9 C9             0.3126    -4.0734     0.2981 C.ar    
  10 N10           -0.7891    -4.7927     0.3148 N.ar    
  11 C11           -1.9916    -4.2324     0.2459 C.ar    
  12 C12           -2.1249    -2.8511     0.1529 C.ar    
  13 C13           -3.2017    -5.0866     0.2680 C.2     
  14 N14           -3.0796    -6.4259     0.3576 N.am    
  15 O15           -1.0641    -0.7102     0.0485 O.3     
  16 O16           -4.3044    -4.5799     0.2053 O.2     
  17 C17           -4.2158    -7.2220     0.4844 C.ar    
  18 C18           -4.0787    -8.5895     0.6933 C.ar    
  19 C19           -5.2157    -9.3687     0.8175 C.ar    
  20 C20           -6.4552    -8.7505     0.7281 C.ar    
  21 C21           -6.5171    -7.3866     0.5195 C.ar    
  22 N22           -5.4161    -6.6684     0.4103 N.ar    
  23 C23           -5.1103   -10.8549     1.0442 C.3     
  24 C24           -5.0683   -11.1399     2.5468 C.3     
  25 H25           -2.2212     0.2047    -2.1490 H       
  26 H26           -2.7369    -0.3491     2.0675 H       
  27 H27           -5.7222     1.3817    -0.2465 H       
  28 H28            1.1716    -2.1132     0.1941 H       
  29 H29            1.2714    -4.5673     0.3557 H       
  30 H30           -3.1033    -2.3972     0.0970 H       
  31 H31           -2.2006    -6.8354     0.3337 H       
  32 H32           -3.0982    -9.0379     0.7574 H       
  33 H33           -7.3618    -9.3301     0.8205 H       
  34 H34           -7.4793    -6.9013     0.4489 H       
  35 H35           -5.9750   -11.3517     0.6042 H       
  36 H36           -4.1994   -11.2299     0.5776 H       
  37 H37           -4.9921   -12.2148     2.7108 H       
  38 H38           -4.2036   -10.6430     2.9868 H       
  39 H39           -5.9791   -10.7648     3.0134 H       
@<TRIPOS>BOND
   1    1    2 ar
   2    1    6 ar
   3    1   25 1
   4    2    3 ar
   5    2   15 1
   6    3    4 ar
   7    3   26 1
   8    4    5 ar
   9    5    6 ar
  10    5   27 1
  11    7    8 ar
  12    7   12 ar
  13    7   15 1
  14    8    9 ar
  15    8   28 1
  16    9   10 ar
  17    9   29 1
  18   10   11 ar
  19   11   12 ar
  20   11   13 1
  21   12   30 1
  22   13   14 am
  23   13   16 2
  24   14   17 1
  25   14   31 1
  26   17   18 ar
  27   17   22 ar
  28   18   19 ar
  29   18   32 1
  30   19   20 ar
  31   19   23 1
  32   20   21 ar
  33   20   33 1
  34   21   22 ar
  35   21   34 1
  36   23   24 1
  37   23   35 1
  38   23   36 1
  39   24   37 1
  40   24   38 1
  41   24   39 1

#	End of record

