#	Name: ASD01320092
#	Creating user name:	WinNT
#	Creation time:	15. 06. 2019 19:16

#	Modifying user name:	WinNT
#	Modification time:	15. 06. 2019 19:16

#	Program:	/corina/corina34_cracker 3.40 0067  02.08.2006

@<TRIPOS>MOLECULE
ASD01320092
  61   64    0    0    0
SMALL
NO_CHARGES


@<TRIPOS>ATOM
   1 C1            -0.6478     1.1052    -0.1542 C.ar    
   2 N2             1.7527     0.8373    -0.0051 N.am    
   3 O3            -0.7896    -0.2419    -0.2775 O.3     
   4 C4             0.6218     1.6627    -0.0164 C.ar    
   5 N5            -0.2185     5.2390     0.2237 N.am    
   6 O6            -6.9308    -1.6341    -0.6787 O.2     
   7 C7             0.7633     3.0365     0.1091 C.ar    
   8 N8            -2.9866    10.6360    -0.9083 N.pl3   
   9 O9            -6.1942    -3.6527    -0.1207 O.3     
  10 C10           -0.3596     3.8519     0.0971 C.ar    
  11 N11            7.5298     0.3471     2.1059 N.pl3   
  12 O12           -6.0737    -1.3857    -2.7324 O.2     
  13 C13           -1.6236     3.2924    -0.0400 C.ar    
  14 O14           -4.3887    -0.4566    -3.8383 O.3     
  15 C15           -1.7655     1.9243    -0.1714 C.ar    
  16 O16            2.9361     2.3580     1.0996 O.2     
  17 C17           -2.0475    -0.7493    -0.3137 C.ar    
  18 O18            7.5924     1.4618     2.5928 O.2     
  19 C19           -2.8128    -0.6195    -1.4661 C.ar    
  20 O20            8.4862    -0.4036     2.1781 O.2     
  21 C21           -4.1014    -1.1392    -1.5050 C.ar    
  22 O22           -2.0605     5.6063    -0.9616 O.2     
  23 C23           -4.6229    -1.7954    -0.3723 C.ar    
  24 O24           -3.8971    10.1845    -1.5796 O.2     
  25 C25           -3.8421    -1.9173     0.7763 C.ar    
  26 O26           -2.9185    11.8344    -0.7018 O.2     
  27 C27           -2.5629    -1.4018     0.8003 C.ar    
  28 C28           -5.9898    -2.3507    -0.4015 C.2     
  29 C29           -4.9208    -1.0037    -2.7284 C.2     
  30 C30            2.8781     1.2447     0.6146 C.2     
  31 C31            4.0419     0.3378     0.7046 C.ar    
  32 C32            5.2089     0.7565     1.3456 C.ar    
  33 C33            6.2914    -0.0952     1.4265 C.ar    
  34 C34            6.2221    -1.3614     0.8736 C.ar    
  35 C35            5.0681    -1.7827     0.2366 C.ar    
  36 C36            3.9766    -0.9434     0.1538 C.ar    
  37 C37           -1.1532     6.0614    -0.2926 C.2     
  38 C38           -1.0750     7.5166    -0.0454 C.ar    
  39 C39           -2.0413     8.3710    -0.5786 C.ar    
  40 C40           -1.9627     9.7284    -0.3437 C.ar    
  41 C41           -0.9289    10.2429     0.4181 C.ar    
  42 C42            0.0326     9.4014     0.9493 C.ar    
  43 C43           -0.0376     8.0418     0.7273 C.ar    
  44 H44            1.7262    -0.0276    -0.4433 H       
  45 H45            0.5520     5.6082     0.6830 H       
  46 H46            1.7461     3.4712     0.2165 H       
  47 H47           -7.1069    -3.9706    -0.1526 H       
  48 H48           -2.4966     3.9282    -0.0485 H       
  49 H49           -4.9631    -0.3892    -4.6133 H       
  50 H50           -2.7491     1.4924    -0.2828 H       
  51 H51           -2.4071    -0.1151    -2.3306 H       
  52 H52           -4.2379    -2.4191     1.6469 H       
  53 H53           -1.9599    -1.5024     1.6906 H       
  54 H54            5.2645     1.7450     1.7770 H       
  55 H55            7.0725    -2.0238     0.9390 H       
  56 H56            5.0204    -2.7725    -0.1930 H       
  57 H57            3.0750    -1.2750    -0.3397 H       
  58 H58           -2.8485     7.9707    -1.1741 H       
  59 H59           -0.8719    11.3062     0.5987 H       
  60 H60            0.8373     9.8095     1.5429 H       
  61 H61            0.7110     7.3856     1.1461 H       
@<TRIPOS>BOND
   1    1    3 1
   2    1    4 ar
   3    1   15 ar
   4    2    4 1
   5    2   30 am
   6    2   44 1
   7    3   17 1
   8    4    7 ar
   9    5   10 1
  10    5   37 am
  11    5   45 1
  12    6   28 2
  13    7   10 ar
  14    7   46 1
  15    8   24 2
  16    8   26 2
  17    8   40 1
  18    9   28 1
  19    9   47 1
  20   10   13 ar
  21   11   18 2
  22   11   20 2
  23   11   33 1
  24   12   29 2
  25   13   15 ar
  26   13   48 1
  27   14   29 1
  28   14   49 1
  29   15   50 1
  30   16   30 2
  31   17   19 ar
  32   17   27 ar
  33   19   21 ar
  34   19   51 1
  35   21   23 ar
  36   21   29 1
  37   22   37 2
  38   23   25 ar
  39   23   28 1
  40   25   27 ar
  41   25   52 1
  42   27   53 1
  43   30   31 1
  44   31   32 ar
  45   31   36 ar
  46   32   33 ar
  47   32   54 1
  48   33   34 ar
  49   34   35 ar
  50   34   55 1
  51   35   36 ar
  52   35   56 1
  53   36   57 1
  54   37   38 1
  55   38   39 ar
  56   38   43 ar
  57   39   40 ar
  58   39   58 1
  59   40   41 ar
  60   41   42 ar
  61   41   59 1
  62   42   43 ar
  63   42   60 1
  64   43   61 1

#	End of record

