#	Name: ASD01915741
#	Creating user name:	WinNT
#	Creation time:	15. 06. 2019 20:06

#	Modifying user name:	WinNT
#	Modification time:	15. 06. 2019 20:06

#	Program:	/corina/corina34_cracker 3.40 0067  02.08.2006

@<TRIPOS>MOLECULE
ASD01915741
  47   50    0    0    0
SMALL
NO_CHARGES


@<TRIPOS>ATOM
   1 C1            -0.0042     1.4684     0.2346 C.2     
   2 N2             0.0661     0.1189    -0.0301 N.pl3   
   3 C3            -1.1431    -0.6639    -0.3126 C.3     
   4 C4            -2.3281    -0.0486     0.4299 C.3     
   5 N5            -2.4044     1.3988     0.2638 N.am    
   6 C6            -1.2934     2.1742     0.2859 C.2     
   7 C7             1.2763     1.9057     0.4253 C.2     
   8 C8             2.0758     0.7647     0.2733 C.2     
   9 N9             1.2863    -0.2506     0.0108 N.2     
  10 C10            3.5774     0.7128     0.3901 C.3     
  11 O11            4.0778     2.0187     0.6836 O.3     
  12 C12            5.4236     2.1470     0.8220 C.ar    
  13 O13           -1.3589     3.3874     0.3455 O.2     
  14 C14            6.2458     1.0386     0.6781 C.ar    
  15 C15            5.9782     3.3873     1.1016 C.ar    
  16 C16            7.3467     3.5151     1.2418 C.ar    
  17 C17            8.1633     2.4083     1.1032 C.ar    
  18 C18            7.6134     1.1716     0.8192 C.ar    
  19 C19           -3.6541     2.0003     0.0771 C.ar    
  20 C20           -4.5855     2.0028     1.1072 C.ar    
  21 C21           -3.9626     2.6005    -1.1366 C.ar    
  22 C22           -5.1965     3.1936    -1.3187 C.ar    
  23 C23           -6.1256     3.1903    -0.2920 C.ar    
  24 C24           -5.8182     2.5969     0.9209 C.ar    
  25 C25           -1.4204    -0.6503    -1.8172 C.3     
  26 F26           -7.3319     3.7714    -0.4720 F       
  27 C27            7.9499     4.8623     1.5456 C.3     
  28 H28           -0.9979    -1.6911     0.0219 H       
  29 H29           -3.2490    -0.4952     0.0550 H       
  30 H30           -2.2353    -0.2768     1.4917 H       
  31 H31            1.6016     2.9118     0.6451 H       
  32 H32            3.8560     0.0283     1.1913 H       
  33 H33            4.0031     0.3635    -0.5506 H       
  34 H34            5.8168     0.0726     0.4563 H       
  35 H35            5.3407     4.2524     1.2093 H       
  36 H36            9.2329     2.5103     1.2128 H       
  37 H37            8.2534     0.3084     0.7114 H       
  38 H38           -4.3461     1.5401     2.0533 H       
  39 H39           -3.2379     2.6039    -1.9374 H       
  40 H40           -5.4368     3.6605    -2.2625 H       
  41 H41           -6.5444     2.5952     1.7202 H       
  42 H42           -0.5734    -1.0866    -2.3466 H       
  43 H43           -2.3183    -1.2317    -2.0264 H       
  44 H44           -1.5669     0.3772    -2.1503 H       
  45 H45            8.0098     4.9984     2.6254 H       
  46 H46            8.9503     4.9177     1.1164 H       
  47 H47            7.3258     5.6453     1.1148 H       
@<TRIPOS>BOND
   1    1    2 1
   2    1    7 2
   3    1    6 1
   4    2    3 1
   5    2    9 1
   6    3    4 1
   7    3   25 1
   8    3   28 1
   9    4    5 1
  10    4   29 1
  11    4   30 1
  12    5    6 am
  13    5   19 1
  14    6   13 2
  15    7    8 1
  16    7   31 1
  17    8    9 2
  18    8   10 1
  19   10   11 1
  20   10   32 1
  21   10   33 1
  22   11   12 1
  23   12   14 ar
  24   12   15 ar
  25   14   18 ar
  26   14   34 1
  27   15   16 ar
  28   15   35 1
  29   16   17 ar
  30   16   27 1
  31   17   18 ar
  32   17   36 1
  33   18   37 1
  34   19   20 ar
  35   19   21 ar
  36   20   24 ar
  37   20   38 1
  38   21   22 ar
  39   21   39 1
  40   22   23 ar
  41   22   40 1
  42   23   24 ar
  43   23   26 1
  44   24   41 1
  45   25   42 1
  46   25   43 1
  47   25   44 1
  48   27   45 1
  49   27   46 1
  50   27   47 1

#	End of record

