#	Name: ASD01881354
#	Creating user name:	WinNT
#	Creation time:	15. 06. 2019 19:42

#	Modifying user name:	WinNT
#	Modification time:	15. 06. 2019 19:42

#	Program:	/corina/corina34_cracker 3.40 0067  02.08.2006

@<TRIPOS>MOLECULE
ASD01881354
  64   66    0    0    0
SMALL
NO_CHARGES


@<TRIPOS>ATOM
   1 C1            -0.0097     1.4691     0.0881 C.2     
   2 C2             0.0061    -0.0047     0.0399 C.ar    
   3 C3             1.2155    -0.6880    -0.1187 C.ar    
   4 C4             1.2257    -2.0639    -0.1632 C.ar    
   5 C5             0.0356    -2.7739    -0.0511 C.ar    
   6 C6            -1.1689    -2.0985     0.1062 C.ar    
   7 C7            -1.1874    -0.7226     0.1584 C.ar    
   8 O8             1.0359     2.0879     0.0956 O.2     
   9 O9            -1.1838     2.1297     0.1181 O.3     
  10 C10            2.5060     0.0805    -0.2412 C.3     
  11 O11            0.0501    -4.1301    -0.0959 O.3     
  12 C12           -1.2081    -4.7966     0.0252 C.3     
  13 C13           -0.9928    -6.3097    -0.0473 C.3     
  14 C14           -2.3399    -7.0233     0.0824 C.3     
  15 C15           -2.1245    -8.5364     0.0099 C.3     
  16 O16           -3.3827    -9.2029     0.1310 O.3     
  17 C17           -3.3683   -10.5588     0.0863 C.ar    
  18 C18           -4.5571   -11.2660     0.1983 C.ar    
  19 C19           -4.5448   -12.6490     0.1524 C.ar    
  20 C20           -3.3232   -13.3281    -0.0079 C.ar    
  21 C21           -2.1327   -12.5972    -0.1193 C.ar    
  22 C22           -2.1614   -11.2336    -0.0776 C.ar    
  23 C23           -5.8601   -10.5285     0.3702 C.3     
  24 O24           -5.7032   -13.3454     0.2617 O.3     
  25 C25           -3.2958   -14.7919    -0.0576 C.2     
  26 O26           -4.3283   -15.4217     0.0396 O.2     
  27 C27           -1.9851   -15.5155    -0.2294 C.3     
  28 C28           -2.2346   -17.0249    -0.2492 C.3     
  29 C29           -0.9233   -17.7721    -0.5487 C.3     
  30 C30           -0.6430   -18.6761     0.6696 C.3     
  31 C31           -2.0352   -18.8863     1.3149 C.3     
  32 C32           -2.7055   -17.5009     1.1407 C.3     
  33 H33            2.1595    -2.5925    -0.2856 H       
  34 H34           -2.0913    -2.6538     0.1922 H       
  35 H35           -2.1232    -0.1987     0.2855 H       
  36 H36           -1.1435     3.0953     0.1493 H       
  37 H37            2.8708     0.3389     0.7529 H       
  38 H38            3.2475    -0.5336    -0.7521 H       
  39 H39            2.3330     0.9922    -0.8131 H       
  40 H40           -1.6647    -4.5400     0.9812 H       
  41 H41           -1.8647    -4.4837    -0.7866 H       
  42 H42           -0.5362    -6.5663    -1.0032 H       
  43 H43           -0.3362    -6.6225     0.7646 H       
  44 H44           -2.7964    -6.7667     1.0383 H       
  45 H45           -2.9965    -6.7105    -0.7294 H       
  46 H46           -1.6680    -8.7930    -0.9460 H       
  47 H47           -1.4680    -8.8492     0.8218 H       
  48 H48           -1.1922   -13.1136    -0.2426 H       
  49 H49           -1.2419   -10.6744    -0.1684 H       
  50 H50           -6.2901   -10.3176    -0.6090 H       
  51 H51           -6.5521   -11.1430     0.9462 H       
  52 H52           -5.6805    -9.5917     0.8976 H       
  53 H53           -6.1390   -13.5192    -0.5838 H       
  54 H54           -1.5225   -15.2114    -1.1684 H       
  55 H55           -1.3219   -15.2677     0.5993 H       
  56 H56           -2.9840   -17.2694    -1.0020 H       
  57 H57           -1.0365   -18.3799    -1.4464 H       
  58 H58           -0.1091   -17.0594    -0.6800 H       
  59 H59           -0.2233   -19.6295     0.3486 H       
  60 H60            0.0297   -18.1777     1.3676 H       
  61 H61           -2.5951   -19.6559     0.7834 H       
  62 H62           -1.9375   -19.1381     2.3709 H       
  63 H63           -2.3659   -16.8128     1.9148 H       
  64 H64           -3.7910   -17.5967     1.1635 H       
@<TRIPOS>BOND
   1    1    2 1
   2    1    8 2
   3    1    9 1
   4    2    3 ar
   5    2    7 ar
   6    3    4 ar
   7    3   10 1
   8    4    5 ar
   9    4   33 1
  10    5    6 ar
  11    5   11 1
  12    6    7 ar
  13    6   34 1
  14    7   35 1
  15    9   36 1
  16   10   37 1
  17   10   38 1
  18   10   39 1
  19   11   12 1
  20   12   13 1
  21   12   40 1
  22   12   41 1
  23   13   14 1
  24   13   42 1
  25   13   43 1
  26   14   15 1
  27   14   44 1
  28   14   45 1
  29   15   16 1
  30   15   46 1
  31   15   47 1
  32   16   17 1
  33   17   18 ar
  34   17   22 ar
  35   18   19 ar
  36   18   23 1
  37   19   20 ar
  38   19   24 1
  39   20   21 ar
  40   20   25 1
  41   21   22 ar
  42   21   48 1
  43   22   49 1
  44   23   50 1
  45   23   51 1
  46   23   52 1
  47   24   53 1
  48   25   26 2
  49   25   27 1
  50   27   28 1
  51   27   54 1
  52   27   55 1
  53   28   29 1
  54   28   32 1
  55   28   56 1
  56   29   30 1
  57   29   57 1
  58   29   58 1
  59   30   31 1
  60   30   59 1
  61   30   60 1
  62   31   32 1
  63   31   61 1
  64   31   62 1
  65   32   63 1
  66   32   64 1

#	End of record

