#	Name: ASD00431203
#	Creating user name:	WinNT
#	Creation time:	15. 06. 2019 18:35

#	Modifying user name:	WinNT
#	Modification time:	15. 06. 2019 18:35

#	Program:	/corina/corina34_cracker 3.40 0067  02.08.2006

@<TRIPOS>MOLECULE
ASD00431203
  54   56    0    0    0
SMALL
NO_CHARGES


@<TRIPOS>ATOM
   1 C1            -0.7776    -0.3180     1.8953 C.2     
   2 N2             0.1122     0.1293     0.9873 N.am    
   3 O3            -0.5598    -1.3473     2.5034 O.2     
   4 O4            -1.9054     0.3784     2.1326 O.3     
   5 C5             1.3313    -0.5391     0.8127 C.ar    
   6 C6             1.3522    -1.9207     0.6747 C.ar    
   7 C7             2.5545    -2.5791     0.5027 C.ar    
   8 C8             3.7415    -1.8590     0.4677 C.ar    
   9 C9             3.7202    -0.4793     0.6060 C.ar    
  10 C10            2.5179     0.1802     0.7719 C.ar    
  11 Cl11           2.5816    -4.3064     0.3308 Cl      
  12 O12            4.9249    -2.5070     0.2984 O.3     
  13 S13            7.6258    -2.3742     0.0003 S.3     
  14 C14            6.0320    -1.7604     0.0735 C.2     
  15 N15            6.0346    -0.4768    -0.1172 N.2     
  16 C16            7.1998     0.0961    -0.3223 C.2     
  17 C17            8.2478    -0.7542    -0.3042 C.2     
  18 O18           11.3428     0.7685    -0.8486 O.3     
  19 N19           10.1364     0.8109    -0.7306 N.2     
  20 C20            9.6647    -0.3911    -0.5045 C.2     
  21 N21           10.7221    -1.2370    -0.4886 N.2     
  22 C22           11.7741    -0.4890    -0.7075 C.2     
  23 C23           13.2041    -0.9579    -0.7856 C.3     
  24 C24           13.6585    -0.9678    -2.2466 C.3     
  25 N25           14.0582    -0.0510    -0.0147 N.am    
  26 C26           15.2289    -0.4915     0.4872 C.2     
  27 O27           15.5753    -1.6388     0.3006 O.2     
  28 C28           16.1075     0.4413     1.2802 C.3     
  29 C29           -2.8182    -0.1629     3.1236 C.3     
  30 C30           -2.1049    -0.2626     4.4734 C.3     
  31 C31           -4.0326     0.7584     3.2553 C.3     
  32 C32           -3.2789    -1.5547     2.6862 C.3     
  33 H33           -0.0912     0.9141     0.4546 H       
  34 H34            0.4290    -2.4804     0.7023 H       
  35 H35            4.6436     0.0802     0.5791 H       
  36 H36            2.5014     1.2552     0.8747 H       
  37 H37            7.3092     1.1572    -0.4914 H       
  38 H38           13.2793    -1.9647    -0.3749 H       
  39 H39           14.6928    -1.3069    -2.3031 H       
  40 H40           13.0230    -1.6425    -2.8201 H       
  41 H41           13.5833     0.0391    -2.6573 H       
  42 H42           13.7812     0.8666     0.1345 H       
  43 H43           15.8417     0.3815     2.3356 H       
  44 H44           17.1512     0.1546     1.1515 H       
  45 H45           15.9651     1.4626     0.9270 H       
  46 H46           -1.7766     0.7290     4.7850 H       
  47 H47           -2.7901    -0.6689     5.2174 H       
  48 H48           -1.2397    -0.9189     4.3796 H       
  49 H49           -4.5408     0.8294     2.2937 H       
  50 H50           -4.7179     0.3520     3.9993 H       
  51 H51           -3.7044     1.7500     3.5669 H       
  52 H52           -2.4137    -2.2110     2.5923 H       
  53 H53           -3.9642    -1.9611     3.4301 H       
  54 H54           -3.7871    -1.4837     1.7245 H       
@<TRIPOS>BOND
   1    1    2 am
   2    1    3 2
   3    1    4 1
   4    2    5 1
   5    2   33 1
   6    4   29 1
   7    5    6 ar
   8    5   10 ar
   9    6    7 ar
  10    6   34 1
  11    7    8 ar
  12    7   11 1
  13    8    9 ar
  14    8   12 1
  15    9   10 ar
  16    9   35 1
  17   10   36 1
  18   12   14 1
  19   13   14 1
  20   13   17 1
  21   14   15 2
  22   15   16 1
  23   16   17 2
  24   16   37 1
  25   17   20 1
  26   18   19 1
  27   18   22 1
  28   19   20 2
  29   20   21 1
  30   21   22 2
  31   22   23 1
  32   23   24 1
  33   23   25 1
  34   23   38 1
  35   24   39 1
  36   24   40 1
  37   24   41 1
  38   25   26 am
  39   25   42 1
  40   26   27 2
  41   26   28 1
  42   28   43 1
  43   28   44 1
  44   28   45 1
  45   29   30 1
  46   29   32 1
  47   29   31 1
  48   30   46 1
  49   30   47 1
  50   30   48 1
  51   31   49 1
  52   31   50 1
  53   31   51 1
  54   32   52 1
  55   32   53 1
  56   32   54 1

#	End of record

