#	Name: ASD00960279
#	Creating user name:	WinNT
#	Creation time:	15. 06. 2019 18:53

#	Modifying user name:	WinNT
#	Modification time:	15. 06. 2019 18:53

#	Program:	/corina/corina34_cracker 3.40 0067  02.08.2006

@<TRIPOS>MOLECULE
ASD00960279
  34   36    0    0    0
SMALL
NO_CHARGES


@<TRIPOS>ATOM
   1 C1            -0.0167     1.3832     0.0096 C.2     
   2 C2             0.0021    -0.0041     0.0020 C.2     
   3 N3             1.2795     1.8119    -0.0004 N.pl3   
   4 C4             2.1000     0.7158    -0.0001 C.2     
   5 C5             1.3461    -0.3988    -0.0057 C.2     
   6 N6             1.8004     3.1144     0.0037 N.2     
   7 C7             3.0684     3.2729    -0.2327 C.2     
   8 N8             3.8944     2.2094    -0.5242 N.pl3   
   9 C9             3.6042     0.8698     0.0173 C.3     
  10 N10            4.1041     0.7643     1.3946 N.3     
  11 F11            1.8033    -1.6701    -0.0163 F       
  12 C12           -1.2083     2.2320     0.0202 C.2     
  13 O13           -2.3149     1.7268     0.0234 O.2     
  14 O14           -1.0799     3.5750     0.0263 O.3     
  15 C15           -2.2856     4.3419     0.0365 C.3     
  16 C16           -1.9468     5.8104     0.0422 C.ar    
  17 C17           -1.7976     6.4899    -1.1523 C.ar    
  18 C18           -1.4868     7.8369    -1.1471 C.ar    
  19 C19           -1.3256     8.5043     0.0527 C.ar    
  20 C20           -1.4756     7.8250     1.2472 C.ar    
  21 C21           -1.7907     6.4790     1.2420 C.ar    
  22 H22           -0.8581    -0.6571     0.0020 H       
  23 H23            3.4873     4.2679    -0.1992 H       
  24 H24            4.6714     2.3430    -1.0893 H       
  25 H25            4.0660     0.1059    -0.6084 H       
  26 H26            5.1015     0.9129     1.4297 H       
  27 H27            3.6211     1.4066     2.0047 H       
  28 H28           -2.8726     4.1079    -0.8516 H       
  29 H29           -2.8633     4.0989     0.9283 H       
  30 H30           -1.9236     5.9684    -2.0896 H       
  31 H31           -1.3696     8.3676    -2.0803 H       
  32 H32           -1.0821     9.5565     0.0567 H       
  33 H33           -1.3493     8.3464     2.1845 H       
  34 H34           -1.9116     5.9491     2.1752 H       
@<TRIPOS>BOND
   1    1    2 2
   2    1    3 1
   3    1   12 1
   4    2    5 1
   5    2   22 1
   6    3    4 1
   7    3    6 1
   8    4    5 2
   9    4    9 1
  10    5   11 1
  11    6    7 2
  12    7    8 1
  13    7   23 1
  14    8    9 1
  15    8   24 1
  16    9   10 1
  17    9   25 1
  18   10   26 1
  19   10   27 1
  20   12   13 2
  21   12   14 1
  22   14   15 1
  23   15   16 1
  24   15   28 1
  25   15   29 1
  26   16   17 ar
  27   16   21 ar
  28   17   18 ar
  29   17   30 1
  30   18   19 ar
  31   18   31 1
  32   19   20 ar
  33   19   32 1
  34   20   21 ar
  35   20   33 1
  36   21   34 1

#	End of record

