#	Name: ASD09360010
#	Creating user name:	WinNT
#	Creation time:	15. 06. 2019 21:21

#	Modifying user name:	WinNT
#	Modification time:	15. 06. 2019 21:21

#	Program:	/corina/corina34_cracker 3.40 0067  02.08.2006

@<TRIPOS>MOLECULE
ASD09360010
  93   99    0    0    0
SMALL
NO_CHARGES


@<TRIPOS>ATOM
   1 N1            -0.1227     1.0449     0.1596 N.am    
   2 C2             0.0820    -0.2784     0.0297 C.2     
   3 C3            -1.2011    -0.9649    -0.2243 C.2     
   4 C4            -2.1983    -0.0491    -0.2494 C.2     
   5 C5            -1.5599     1.2970     0.0025 C.3     
   6 C6             0.8582     2.0077     0.4063 C.ar    
   7 C7            -2.1260     1.9126     1.2561 C.ar    
   8 C8            -3.6225    -0.3133    -0.4722 C.2     
   9 O9             1.1629    -0.8279     0.1092 O.2     
  10 O10           -1.3553    -2.2970    -0.4038 O.3     
  11 O11           -4.2588    -0.9496     0.3472 O.2     
  12 C12           -4.2857     0.1927    -1.6912 C.ar    
  13 C13           -3.0174     2.9623     1.1661 C.ar    
  14 C14           -3.5400     3.5306     2.3262 C.ar    
  15 C15           -3.1591     3.0350     3.5713 C.ar    
  16 C16           -2.2668     1.9846     3.6496 C.ar    
  17 C17           -1.7555     1.4207     2.4949 C.ar    
  18 C18            2.1882     1.6254     0.5395 C.ar    
  19 C19            3.1580     2.5741     0.7835 C.ar    
  20 C20            2.8043     3.9179     0.8962 C.ar    
  21 C21            1.4701     4.2993     0.7619 C.ar    
  22 C22            0.5041     3.3480     0.5127 C.ar    
  23 C23           -5.6523    -0.0275    -1.8869 C.ar    
  24 C24           -6.2690     0.4448    -3.0228 C.ar    
  25 C25           -5.5308     1.1434    -3.9792 C.ar    
  26 C26           -4.1664     1.3635    -3.7853 C.ar    
  27 C27           -3.5485     0.8972    -2.6475 C.ar    
  28 C28            3.8462     4.9406     1.1593 C.ar    
  29 C29            3.4941     6.2833     1.2721 C.ar    
  30 C30            4.4718     7.2334     1.5183 C.ar    
  31 C31            5.7980     6.8465     1.6514 C.ar    
  32 C32            6.1482     5.5138     1.5390 C.ar    
  33 C33            5.1799     4.5597     1.3000 C.ar    
  34 O34            4.1322     8.5447     1.6291 O.3     
  35 C35           -4.4985     4.6598     2.2357 C.ar    
  36 C36           -4.9357     5.2996     3.3931 C.ar    
  37 C37           -5.8289     6.3512     3.3026 C.ar    
  38 C38           -6.2878     6.7674     2.0636 C.ar    
  39 C39           -5.8559     6.1339     0.9126 C.ar    
  40 C40           -4.9597     5.0873     0.9920 C.ar    
  41 C41           -6.1965     1.6516    -5.2024 C.ar    
  42 C42           -5.4437     2.2524    -6.2106 C.ar    
  43 C43           -6.0689     2.7236    -7.3469 C.ar    
  44 C44           -7.4397     2.6009    -7.4869 C.ar    
  45 C45           -8.1919     2.0062    -6.4897 C.ar    
  46 C46           -7.5770     1.5256    -5.3517 C.ar    
  47 C47            5.7450    15.7001     2.7035 C.3     
  48 F48           -6.2548     6.9731     4.4237 F       
  49 C49            5.1912     9.4699     1.8833 C.3     
  50 C50            4.6199    10.8863     1.9752 C.3     
  51 C51            5.7537    11.8768     2.2474 C.3     
  52 C52            5.1825    13.2932     2.3394 C.3     
  53 C53            6.3163    14.2838     2.6116 C.3     
  54 H54           -1.7282     1.9568    -0.8487 H       
  55 H55           -0.5304    -2.7989    -0.3526 H       
  56 H56           -3.3090     3.3428     0.1984 H       
  57 H57           -3.5609     3.4720     4.4735 H       
  58 H58           -1.9705     1.5999     4.6143 H       
  59 H59           -1.0580     0.5989     2.5608 H       
  60 H60            2.4618     0.5842     0.4520 H       
  61 H61            4.1910     2.2766     0.8876 H       
  62 H62            1.1941     5.3397     0.8492 H       
  63 H63           -0.5295     3.6430     0.4082 H       
  64 H64           -6.2237    -0.5684    -1.1471 H       
  65 H65           -7.3247     0.2745    -3.1744 H       
  66 H66           -3.5962     1.9039    -4.5264 H       
  67 H67           -2.4926     1.0677    -2.4977 H       
  68 H68            2.4618     6.5830     1.1676 H       
  69 H69            6.5588     7.5888     1.8429 H       
  70 H70            7.1817     5.2179     1.6426 H       
  71 H71            5.4566     3.5194     1.2127 H       
  72 H72           -4.5782     4.9748     4.3590 H       
  73 H73           -6.9854     7.5891     1.9963 H       
  74 H74           -6.2173     6.4618    -0.0509 H       
  75 H75           -4.6234     4.5941     0.0920 H       
  76 H76           -4.3735     2.3490    -6.1022 H       
  77 H77           -5.4869     3.1895    -8.1284 H       
  78 H78           -7.9247     2.9712    -8.3780 H       
  79 H79           -9.2618     1.9135    -6.6043 H       
  80 H80           -8.1652     1.0615    -4.5738 H       
  81 H81            5.2564    15.9565     1.7635 H       
  82 H82            5.0189    15.7471     3.5151 H       
  83 H83            6.5528    16.4058     2.8974 H       
  84 H84            5.6798     9.2135     2.8233 H       
  85 H85            5.9173     9.4230     1.0717 H       
  86 H86            4.1313    11.1427     1.0352 H       
  87 H87            3.8938    10.9332     2.7868 H       
  88 H88            6.2424    11.6204     3.1874 H       
  89 H89            6.4798    11.8299     1.4359 H       
  90 H90            4.6938    13.5496     1.3994 H       
  91 H91            4.4563    13.3401     3.1509 H       
  92 H92            7.0424    14.2368     1.8000 H       
  93 H93            6.8049    14.0273     3.5516 H       
@<TRIPOS>BOND
   1    1    2 am
   2    1    6 1
   3    1    5 1
   4    2    3 1
   5    2    9 2
   6    3    4 2
   7    3   10 1
   8    4    5 1
   9    4    8 1
  10    5    7 1
  11    5   54 1
  12    6   18 ar
  13    6   22 ar
  14    7   13 ar
  15    7   17 ar
  16    8   11 2
  17    8   12 1
  18   10   55 1
  19   12   23 ar
  20   12   27 ar
  21   13   14 ar
  22   13   56 1
  23   14   15 ar
  24   14   35 1
  25   15   16 ar
  26   15   57 1
  27   16   17 ar
  28   16   58 1
  29   17   59 1
  30   18   19 ar
  31   18   60 1
  32   19   20 ar
  33   19   61 1
  34   20   21 ar
  35   20   28 1
  36   21   22 ar
  37   21   62 1
  38   22   63 1
  39   23   24 ar
  40   23   64 1
  41   24   25 ar
  42   24   65 1
  43   25   26 ar
  44   25   41 1
  45   26   27 ar
  46   26   66 1
  47   27   67 1
  48   28   29 ar
  49   28   33 ar
  50   29   30 ar
  51   29   68 1
  52   30   31 ar
  53   30   34 1
  54   31   32 ar
  55   31   69 1
  56   32   33 ar
  57   32   70 1
  58   33   71 1
  59   34   49 1
  60   35   36 ar
  61   35   40 ar
  62   36   37 ar
  63   36   72 1
  64   37   38 ar
  65   37   48 1
  66   38   39 ar
  67   38   73 1
  68   39   40 ar
  69   39   74 1
  70   40   75 1
  71   41   42 ar
  72   41   46 ar
  73   42   43 ar
  74   42   76 1
  75   43   44 ar
  76   43   77 1
  77   44   45 ar
  78   44   78 1
  79   45   46 ar
  80   45   79 1
  81   46   80 1
  82   47   53 1
  83   47   81 1
  84   47   82 1
  85   47   83 1
  86   49   50 1
  87   49   84 1
  88   49   85 1
  89   50   51 1
  90   50   86 1
  91   50   87 1
  92   51   52 1
  93   51   88 1
  94   51   89 1
  95   52   53 1
  96   52   90 1
  97   52   91 1
  98   53   92 1
  99   53   93 1

#	End of record

