#	Name: ASD01122047
#	Creating user name:	WinNT
#	Creation time:	15. 06. 2019 18:59

#	Modifying user name:	WinNT
#	Modification time:	15. 06. 2019 18:59

#	Program:	/corina/corina34_cracker 3.40 0067  02.08.2006

@<TRIPOS>MOLECULE
ASD01122047
  49   51    0    0    0
SMALL
NO_CHARGES


@<TRIPOS>ATOM
   1 N1            -0.0158     1.3158     0.0093 N.ar    
   2 C2             0.0021    -0.0041     0.0020 C.ar    
   3 N3             1.1233    -0.6957    -0.0124 N.ar    
   4 C4             2.2988    -0.0799    -0.0203 C.ar    
   5 C5             2.3351     1.3251    -0.0131 C.ar    
   6 C6             1.1117     2.0194     0.0023 C.ar    
   7 N7             3.6135    -0.4992    -0.0351 N.am    
   8 C8             4.4015     0.6351    -0.0366 C.2     
   9 N9             3.6349     1.7006    -0.0235 N.2     
  10 N10            1.0829     3.4033     0.0095 N.pl3   
  11 P11            9.4006    -1.0841     0.3775 P.3     
  12 O12            9.8271    -1.0156     1.8834 O.co2   
  13 O13           10.5846    -0.5933    -0.5234 O.co2   
  14 O14            9.0380    -2.5618     0.0041 O.co2   
  15 O15            5.2357    -2.0116    -0.0583 O.2     
  16 C16            4.0469    -1.7753    -0.0461 C.2     
  17 C17            3.0535    -2.9085    -0.0433 C.3     
  18 O18            3.7148    -4.1227    -0.4047 O.3     
  19 C19            2.4493    -3.0536     1.3549 C.3     
  20 O20            3.4978    -3.2126     2.3127 O.3     
  21 C21            1.5354    -4.2801     1.3908 C.3     
  22 O22            2.2663    -5.4314     0.9636 O.3     
  23 C23            1.0297    -4.4978     2.8183 C.3     
  24 O24            0.0861    -5.5708     2.8310 O.3     
  25 C25            5.8705     0.6472    -0.0505 C.2     
  26 C26            6.6601     1.7216    -0.3380 C.2     
  27 C27            7.9926     1.2840    -0.2330 C.2     
  28 C28            7.9557    -0.0207     0.1093 C.2     
  29 O29            6.6738    -0.4001     0.2243 O.3     
  30 C30           -0.4506    -5.8576     4.1240 C.3     
  31 C31           -1.4436    -7.0167     4.0183 C.3     
  32 H32           -0.9374    -0.5368     0.0085 H       
  33 H33            1.9126     3.9057     0.0040 H       
  34 H34            0.2330     3.8706     0.0202 H       
  35 H35            2.2609    -2.6987    -0.7616 H       
  36 H36            4.4336    -4.3718     0.1923 H       
  37 H37            1.8702    -2.1619     1.5948 H       
  38 H38            4.0550    -3.9882     2.1608 H       
  39 H39            0.6871    -4.1208     0.7252 H       
  40 H40            3.0369    -5.6337     1.5116 H       
  41 H41            1.8697    -4.7449     3.4676 H       
  42 H42            0.5494    -3.5872     3.1764 H       
  43 H43            6.3267     2.7157    -0.5965 H       
  44 H44            8.8784     1.8798    -0.3963 H       
  45 H45            0.3587    -6.1330     4.8003 H       
  46 H46           -0.9617    -4.9753     4.5091 H       
  47 H47           -2.2529    -6.7414     3.3420 H       
  48 H48           -0.9326    -7.8991     3.6332 H       
  49 H49           -1.8530    -7.2355     5.0046 H       
@<TRIPOS>BOND
   1    1    2 ar
   2    1    6 ar
   3    2    3 ar
   4    2   32 1
   5    3    4 ar
   6    4    5 ar
   7    4    7 1
   8    5    6 ar
   9    5    9 1
  10    6   10 1
  11    7    8 1
  12    7   16 am
  13    8    9 2
  14    8   25 1
  15   10   33 1
  16   10   34 1
  17   11   12 ar
  18   11   13 ar
  19   11   14 ar
  20   11   28 1
  21   15   16 2
  22   16   17 1
  23   17   19 1
  24   17   18 1
  25   17   35 1
  26   18   36 1
  27   19   20 1
  28   19   21 1
  29   19   37 1
  30   20   38 1
  31   21   23 1
  32   21   22 1
  33   21   39 1
  34   22   40 1
  35   23   24 1
  36   23   41 1
  37   23   42 1
  38   24   30 1
  39   25   26 2
  40   25   29 1
  41   26   27 1
  42   26   43 1
  43   27   28 2
  44   27   44 1
  45   28   29 1
  46   30   31 1
  47   30   45 1
  48   30   46 1
  49   31   47 1
  50   31   48 1
  51   31   49 1

#	End of record

