#	Name: ASD00069114
#	Creating user name:	WinNT
#	Creation time:	15. 06. 2019 18:29

#	Modifying user name:	WinNT
#	Modification time:	15. 06. 2019 18:29

#	Program:	/corina/corina34_cracker 3.40 0067  02.08.2006

@<TRIPOS>MOLECULE
ASD00069114
  52   55    0    0    0
SMALL
NO_CHARGES


@<TRIPOS>ATOM
   1 C1            -0.0636     1.2954    -0.5900 C.2     
   2 N2            -0.0206     0.0043    -0.3441 N.2     
   3 C3             1.2312    -0.4331    -0.5260 C.2     
   4 C4             2.0013     0.6319    -0.9014 C.2     
   5 N5             1.1900     1.7132    -0.9412 N.pl3   
   6 C6            -1.2631     2.1478    -0.5072 C.2     
   7 O7            -1.1840     3.3352    -0.7587 O.2     
   8 N8            -2.4478     1.6116    -0.1528 N.am    
   9 C9             3.0537    -2.1422    -0.4693 C.ar    
  10 C10            1.7010    -1.8300    -0.3506 C.ar    
  11 C11            0.7940    -2.8532    -0.0634 C.ar    
  12 C12            1.2825    -4.1394     0.0915 C.ar    
  13 C13            2.6396    -4.3681    -0.0419 C.ar    
  14 N14            3.4720    -3.3815    -0.3135 N.ar    
  15 C15            0.3452    -5.2778     0.4025 C.3     
  16 F16           -0.1087    -5.8477    -0.7918 F       
  17 F17            1.0203    -6.2457     1.1540 F       
  18 F18           -0.7460    -4.7969     1.1340 F       
  19 C19           -3.5616     2.4386     0.0385 C.ar    
  20 C20           -4.8460     1.8965     0.0207 C.ar    
  21 C21           -5.9460     2.7222     0.2110 C.ar    
  22 C22           -5.7645     4.0789     0.4174 C.ar    
  23 C23           -4.4901     4.6149     0.4347 C.ar    
  24 C24           -3.3896     3.7986     0.2518 C.ar    
  25 F25           -7.1927     2.2019     0.1943 F       
  26 N26           -5.0262     0.5233    -0.1888 N.3     
  27 C27           -5.7496     0.2726    -1.4419 C.3     
  28 C28           -5.8004    -1.2331    -1.7107 C.3     
  29 C29           -6.5050    -1.9314    -0.5443 C.3     
  30 C30           -5.7597    -1.6148     0.7552 C.3     
  31 C31           -5.7100    -0.0980     0.9526 C.3     
  32 N32           -6.5424    -1.4847    -2.9533 N.3     
  33 H33            3.0579     0.6135    -1.1242 H       
  34 H34            1.4494     2.6180    -1.1756 H       
  35 H35           -2.5288     0.6528    -0.0302 H       
  36 H36            3.7652    -1.3617    -0.6955 H       
  37 H37           -0.2613    -2.6460     0.0357 H       
  38 H38            3.0242    -5.3701     0.0786 H       
  39 H39           -6.6207     4.7205     0.5649 H       
  40 H40           -4.3537     5.6740     0.5961 H       
  41 H41           -2.3956     4.2205     0.2704 H       
  42 H42           -6.7646     0.6612    -1.3592 H       
  43 H43           -5.2359     0.7711    -2.2638 H       
  44 H44           -4.7860    -1.6200    -1.8072 H       
  45 H45           -7.5319    -1.5730    -0.4718 H       
  46 H46           -6.5051    -3.0086    -0.7110 H       
  47 H47           -6.2811    -2.0741     1.5950 H       
  48 H48           -4.7446    -2.0076     0.6975 H       
  49 H49           -5.1675     0.1314     1.8697 H       
  50 H50           -6.7252     0.2924     1.0240 H       
  51 H51           -6.5897    -2.4727    -3.1525 H       
  52 H52           -7.4656    -1.0797    -2.9116 H       
@<TRIPOS>BOND
   1    1    2 2
   2    1    5 1
   3    1    6 1
   4    2    3 1
   5    3    4 2
   6    3   10 1
   7    4    5 1
   8    4   33 1
   9    5   34 1
  10    6    7 2
  11    6    8 am
  12    8   19 1
  13    8   35 1
  14    9   10 ar
  15    9   14 ar
  16    9   36 1
  17   10   11 ar
  18   11   12 ar
  19   11   37 1
  20   12   13 ar
  21   12   15 1
  22   13   14 ar
  23   13   38 1
  24   15   16 1
  25   15   17 1
  26   15   18 1
  27   19   20 ar
  28   19   24 ar
  29   20   21 ar
  30   20   26 1
  31   21   22 ar
  32   21   25 1
  33   22   23 ar
  34   22   39 1
  35   23   24 ar
  36   23   40 1
  37   24   41 1
  38   26   27 1
  39   26   31 1
  40   27   28 1
  41   27   42 1
  42   27   43 1
  43   28   29 1
  44   28   32 1
  45   28   44 1
  46   29   30 1
  47   29   45 1
  48   29   46 1
  49   30   31 1
  50   30   47 1
  51   30   48 1
  52   31   49 1
  53   31   50 1
  54   32   51 1
  55   32   52 1

#	End of record

