#	Name: ASD03730221
#	Creating user name:	WinNT
#	Creation time:	15. 06. 2019 20:44

#	Modifying user name:	WinNT
#	Modification time:	15. 06. 2019 20:44

#	Program:	/corina/corina34_cracker 3.40 0067  02.08.2006

@<TRIPOS>MOLECULE
ASD03730221
  67   74    0    0    0
SMALL
NO_CHARGES


@<TRIPOS>ATOM
   1 N1             1.4593     2.0460    -1.8726 N.3     
   2 C2             1.4502     0.5724    -2.0272 C.3     
   3 O3             2.8438     0.2434    -2.1691 O.3     
   4 C4             3.5436     1.2157    -1.5146 C.ar    
   5 C5             2.7260     2.3292    -1.3257 C.ar    
   6 C6             4.8482     1.2365    -1.0508 C.ar    
   7 C7             5.3513     2.3612    -0.4041 C.ar    
   8 C8             4.5291     3.4714    -0.2376 C.ar    
   9 C9             3.2260     3.4536    -0.6897 C.ar    
  10 O10            6.5839     2.5738     0.1409 O.3     
  11 C11            5.3585     4.5214     0.4516 C.3     
  12 C12            6.7911     3.9894     0.3078 C.3     
  13 N13            4.7791     6.7056     0.7936 N.am    
  14 C14            5.2015     5.8751    -0.1803 C.2     
  15 C15            4.9708     4.7066     1.8883 C.ar    
  16 C16            4.9019     3.8534     2.9813 C.ar    
  17 C17            4.4926     4.3459     4.2204 C.ar    
  18 C18            4.1585     5.6793     4.3507 C.ar    
  19 C19            4.2273     6.5267     3.2636 C.ar    
  20 C20            4.6340     6.0492     2.0188 C.ar    
  21 O21            5.4128     6.1639    -1.3392 O.2     
  22 C22            0.3863     2.4874    -0.9716 C.3     
  23 C23            0.7107     2.0531     0.4591 C.3     
  24 C24           -0.4068     2.5128     1.3975 C.3     
  25 C25           -0.0824     2.0785     2.8283 C.3     
  26 C26           -1.1999     2.5382     3.7667 C.3     
  27 O27            7.7568     2.7491     2.7967 O.3     
  28 C28            6.6074     2.0412     2.7587 C.ar    
  29 C29            6.9235     0.6842     2.6178 C.ar    
  30 C30            8.3971     0.6203     2.5717 C.ar    
  31 C31            8.8380     1.9460     2.6892 C.ar    
  32 C32            5.9133    -0.2701     2.5519 C.ar    
  33 C33            4.5909     0.1190     2.6256 C.ar    
  34 C34            4.2643     1.4557     2.7648 C.ar    
  35 C35            5.2621     2.4223     2.8318 C.ar    
  36 C36           10.2024     2.2090     2.6780 C.ar    
  37 C37           11.1051     1.1738     2.5522 C.ar    
  38 C38           10.6662    -0.1351     2.4363 C.ar    
  39 C39            9.3156    -0.4158     2.4455 C.ar    
  40 H40            1.0312     0.0957    -1.1410 H       
  41 H41            0.8945     0.2832    -2.9192 H       
  42 H42            5.4804     0.3723    -1.1918 H       
  43 H43            2.5942     4.3178    -0.5470 H       
  44 H44            7.3713     4.1921     1.2080 H       
  45 H45            7.2759     4.4157    -0.5705 H       
  46 H46            4.5967     7.6488     0.6597 H       
  47 H47            4.4368     3.6870     5.0742 H       
  48 H48            3.8416     6.0617     5.3097 H       
  49 H49            3.9633     7.5676     3.3780 H       
  50 H50            0.3022     3.5735    -1.0114 H       
  51 H51           -0.5570     2.0383    -1.2825 H       
  52 H52            0.7948     0.9671     0.4989 H       
  53 H53            1.6540     2.5022     0.7701 H       
  54 H54           -0.4909     3.5989     1.3578 H       
  55 H55           -1.3501     2.0637     1.0866 H       
  56 H56            0.0017     0.9925     2.8681 H       
  57 H57            0.8609     2.5276     3.1392 H       
  58 H58           -0.9688     2.2288     4.7859 H       
  59 H59           -1.2840     3.6242     3.7269 H       
  60 H60           -2.1432     2.0891     3.4557 H       
  61 H61            6.1636    -1.3150     2.4429 H       
  62 H62            3.8082    -0.6233     2.5739 H       
  63 H63            3.2270     1.7511     2.8213 H       
  64 H64           10.5564     3.2254     2.7676 H       
  65 H65           12.1641     1.3857     2.5435 H       
  66 H66           11.3827    -0.9372     2.3383 H       
  67 H67            8.9731    -1.4360     2.3549 H       
@<TRIPOS>BOND
   1    1    2 1
   2    1    5 1
   3    1   22 1
   4    2    3 1
   5    2   40 1
   6    2   41 1
   7    3    4 1
   8    4    5 ar
   9    4    6 ar
  10    5    9 ar
  11    6    7 ar
  12    6   42 1
  13    7    8 ar
  14    7   10 1
  15    8    9 ar
  16    8   11 1
  17    9   43 1
  18   10   12 1
  19   11   12 1
  20   11   14 1
  21   11   15 1
  22   12   44 1
  23   12   45 1
  24   13   14 am
  25   13   20 1
  26   13   46 1
  27   14   21 2
  28   15   16 ar
  29   15   20 ar
  30   16   17 ar
  31   16   35 1
  32   17   18 ar
  33   17   47 1
  34   18   19 ar
  35   18   48 1
  36   19   20 ar
  37   19   49 1
  38   22   23 1
  39   22   50 1
  40   22   51 1
  41   23   24 1
  42   23   52 1
  43   23   53 1
  44   24   25 1
  45   24   54 1
  46   24   55 1
  47   25   26 1
  48   25   56 1
  49   25   57 1
  50   26   58 1
  51   26   59 1
  52   26   60 1
  53   27   28 1
  54   27   31 1
  55   28   29 ar
  56   28   35 ar
  57   29   30 1
  58   29   32 ar
  59   30   31 ar
  60   30   39 ar
  61   31   36 ar
  62   32   33 ar
  63   32   61 1
  64   33   34 ar
  65   33   62 1
  66   34   35 ar
  67   34   63 1
  68   36   37 ar
  69   36   64 1
  70   37   38 ar
  71   37   65 1
  72   38   39 ar
  73   38   66 1
  74   39   67 1

#	End of record

