#	Name: ASD01150749
#	Creating user name:	WinNT
#	Creation time:	15. 06. 2019 19:04

#	Modifying user name:	WinNT
#	Modification time:	15. 06. 2019 19:04

#	Program:	/corina/corina34_cracker 3.40 0067  02.08.2006

@<TRIPOS>MOLECULE
ASD01150749
  45   47    0    0    0
SMALL
NO_CHARGES


@<TRIPOS>ATOM
   1 C1             0.0403     1.4789     0.4555 C.2     
   2 C2            -0.8243     1.0316    -0.6949 C.3     
   3 N3             3.4364     2.7921    -0.2040 N.ar    
   4 C4             2.4441     1.9671     0.0043 C.ar    
   5 C5             1.1336     2.4292     0.2250 C.ar    
   6 C6             0.8847     3.8136     0.2214 C.ar    
   7 C7             1.9824     4.6795    -0.0074 C.ar    
   8 C8             1.8156     6.0704    -0.0266 C.ar    
   9 C9             2.9062     6.8815    -0.2525 C.ar    
  10 C10            4.1713     6.3267    -0.4621 C.ar    
  11 C11            4.3564     4.9783    -0.4478 C.ar    
  12 C12            3.2670     4.1214    -0.2200 C.ar    
  13 O13            2.7501     8.2313    -0.2722 O.3     
  14 C14            3.9200     9.0162    -0.5116 C.3     
  15 F15            4.4588     8.6819    -1.7587 F       
  16 F16            3.5816    10.3736    -0.4986 F       
  17 F17            4.8650     8.7616     0.4881 F       
  18 C18            2.7104     0.4839     0.0081 C.3     
  19 C19           -0.4748     4.3464     0.4480 C.ar    
  20 C20           -1.1043     4.1613     1.6809 C.ar    
  21 C21           -2.3735     4.6612     1.8855 C.ar    
  22 C22           -3.0229     5.3448     0.8727 C.ar    
  23 C23           -2.4051     5.5319    -0.3514 C.ar    
  24 C24           -1.1339     5.0423    -0.5678 C.ar    
  25 S25           -4.6443     5.9795     1.1426 S.o2    
  26 O26           -5.2198     6.0345    -0.1555 O.2     
  27 O27           -5.1874     5.1368     2.1497 O.2     
  28 C28           -4.3736     7.6522     1.7903 C.3     
  29 F29           -2.1319     1.4895    -0.5011 F       
  30 F30           -0.3189     1.5557    -1.8895 F       
  31 F31           -0.8247    -0.3658    -0.7620 F       
  32 O32           -0.1711     1.0569     1.5731 O.2     
  33 H33            0.8394     6.5035     0.1342 H       
  34 H34            5.0149     6.9776    -0.6384 H       
  35 H35            5.3415     4.5670    -0.6117 H       
  36 H36            2.8635     0.1448     1.0327 H       
  37 H37            1.8576    -0.0395    -0.4242 H       
  38 H38            3.6028     0.2734    -0.5813 H       
  39 H39           -0.5987     3.6276     2.4721 H       
  40 H40           -2.8616     4.5185     2.8383 H       
  41 H41           -2.9178     6.0660    -1.1376 H       
  42 H42           -0.6509     5.1931    -1.5219 H       
  43 H43           -3.8230     8.2411     1.0567 H       
  44 H44           -5.3354     8.1254     1.9880 H       
  45 H45           -3.7996     7.5953     2.7152 H       
@<TRIPOS>BOND
   1    1    2 1
   2    1    5 1
   3    1   32 2
   4    2   29 1
   5    2   30 1
   6    2   31 1
   7    3    4 ar
   8    3   12 ar
   9    4    5 ar
  10    4   18 1
  11    5    6 ar
  12    6    7 ar
  13    6   19 1
  14    7    8 ar
  15    7   12 ar
  16    8    9 ar
  17    8   33 1
  18    9   10 ar
  19    9   13 1
  20   10   11 ar
  21   10   34 1
  22   11   12 ar
  23   11   35 1
  24   13   14 1
  25   14   15 1
  26   14   16 1
  27   14   17 1
  28   18   36 1
  29   18   37 1
  30   18   38 1
  31   19   20 ar
  32   19   24 ar
  33   20   21 ar
  34   20   39 1
  35   21   22 ar
  36   21   40 1
  37   22   23 ar
  38   22   25 1
  39   23   24 ar
  40   23   41 1
  41   24   42 1
  42   25   26 2
  43   25   27 2
  44   25   28 1
  45   28   43 1
  46   28   44 1
  47   28   45 1

#	End of record

