#	Name: ASD02039325
#	Creating user name:	WinNT
#	Creation time:	15. 06. 2019 20:18

#	Modifying user name:	WinNT
#	Modification time:	15. 06. 2019 20:18

#	Program:	/corina/corina34_cracker 3.40 0067  02.08.2006

@<TRIPOS>MOLECULE
ASD02039325
  48   50    0    0    0
SMALL
NO_CHARGES


@<TRIPOS>ATOM
   1 C1             0.1353     1.1844    -0.3177 C.ar    
   2 C2             0.5167    -0.0935     0.0484 C.ar    
   3 C3            -0.3880    -1.1375    -0.0206 C.ar    
   4 C4            -2.0717     0.3822    -0.8152 C.ar    
   5 C5            -1.1537     1.4269    -0.7489 C.ar    
   6 C6            -3.4591     0.6374    -1.2786 C.2     
   7 C7             1.1274     2.3161    -0.2399 C.3     
   8 N8             1.9438     2.3343    -1.4562 N.am    
   9 C9             1.4507     3.0089    -2.6595 C.3     
  10 C10            3.1487     1.7304    -1.4681 C.2     
  11 C11            3.5999     0.9635    -0.2939 C.2     
  12 C12            4.7326     0.2078    -0.2110 C.2     
  13 N13            2.9672     0.8848     0.9047 N.2     
  14 C14            3.6597     0.1181     1.6966 C.2     
  15 N15            4.7627    -0.3196     1.0355 N.pl3   
  16 O16            3.8634     1.8185    -2.4482 O.2     
  17 C17            5.7986    -1.2044     1.5743 C.3     
  18 C18           -4.3197     1.6496    -0.8113 C.2     
  19 C19           -1.6795    -0.9077    -0.4562 C.ar    
  20 C20            2.4339     4.1079    -3.0672 C.3     
  21 C21            1.3207     1.9933    -3.7964 C.3     
  22 F22           -2.5629    -1.9276    -0.5236 F       
  23 C23           -4.1298    -0.0622    -2.2388 C.2     
  24 N24           -5.3561     0.4856    -2.3610 N.pl3   
  25 N25           -5.4503     1.5526    -1.4593 N.2     
  26 C26           -6.4066     0.0433    -3.2813 C.3     
  27 H27            1.5249    -0.2771     0.3893 H       
  28 H28           -0.0847    -2.1337     0.2659 H       
  29 H29           -1.4522     2.4274    -1.0253 H       
  30 H30            0.5932     3.2617    -0.1467 H       
  31 H31            1.7715     2.1756     0.6281 H       
  32 H32            0.4758     3.4513    -2.4543 H       
  33 H33            5.4650     0.0586    -0.9906 H       
  34 H34            3.4007    -0.1278     2.7159 H       
  35 H35            5.5304    -2.2418     1.3743 H       
  36 H36            6.7531    -0.9778     1.0994 H       
  37 H37            5.8829    -1.0520     2.6503 H       
  38 H38           -4.0860     2.3788    -0.0496 H       
  39 H39            3.4245     3.6754    -3.2076 H       
  40 H40            2.1016     4.5652    -3.9992 H       
  41 H41            2.4760     4.8662    -2.2853 H       
  42 H42            0.5863     1.2353    -3.5243 H       
  43 H43            0.9974     2.5033    -4.7039 H       
  44 H44            2.2859     1.5179    -3.9711 H       
  45 H45           -3.7477    -0.9023    -2.7997 H       
  46 H46           -7.0256    -0.7086    -2.7918 H       
  47 H47           -7.0250     0.8955    -3.5633 H       
  48 H48           -5.9509    -0.3860    -4.1735 H       
@<TRIPOS>BOND
   1    1    2 ar
   2    1    7 1
   3    1    5 ar
   4    2    3 ar
   5    2   27 1
   6    3   19 ar
   7    3   28 1
   8    4    5 ar
   9    4    6 1
  10    4   19 ar
  11    5   29 1
  12    6   18 1
  13    6   23 2
  14    7    8 1
  15    7   30 1
  16    7   31 1
  17    8    9 1
  18    8   10 am
  19    9   21 1
  20    9   20 1
  21    9   32 1
  22   10   11 1
  23   10   16 2
  24   11   12 2
  25   11   13 1
  26   12   15 1
  27   12   33 1
  28   13   14 2
  29   14   15 1
  30   14   34 1
  31   15   17 1
  32   17   35 1
  33   17   36 1
  34   17   37 1
  35   18   25 2
  36   18   38 1
  37   19   22 1
  38   20   39 1
  39   20   40 1
  40   20   41 1
  41   21   42 1
  42   21   43 1
  43   21   44 1
  44   23   24 1
  45   23   45 1
  46   24   25 1
  47   24   26 1
  48   26   46 1
  49   26   47 1
  50   26   48 1

#	End of record

