#	Name: ASD01912398
#	Creating user name:	WinNT
#	Creation time:	15. 06. 2019 19:59

#	Modifying user name:	WinNT
#	Modification time:	15. 06. 2019 19:59

#	Program:	/corina/corina34_cracker 3.40 0067  02.08.2006

@<TRIPOS>MOLECULE
ASD01912398
  41   43    0    0    0
SMALL
NO_CHARGES


@<TRIPOS>ATOM
   1 C1            -0.6768     1.4799    -1.7795 C.ar    
   2 C2            -0.7089     0.1047    -1.9258 C.ar    
   3 C3             0.4679    -0.6220    -1.8061 C.ar    
   4 C4             1.6420     0.0600    -1.5425 C.ar    
   5 C5             1.6030     1.4503    -1.4064 C.ar    
   6 N6             0.4531     2.1079    -1.5287 N.ar    
   7 C7             2.8092     2.1721    -1.1333 C.1     
   8 C8             3.7982     2.7639    -0.9095 C.1     
   9 C9             5.0044     3.4857    -0.6365 C.2     
  10 N10            5.0566     7.5404    -1.1397 N.3     
  11 C11            6.3043     6.7692    -1.2056 C.3     
  12 C12            6.2328     5.5996    -0.2171 C.3     
  13 C13            4.9725     4.8112    -0.5059 C.2     
  14 C14            3.6748     5.5799    -0.6417 C.3     
  15 C15            3.9089     6.7507    -1.6032 C.3     
  16 C16            5.1667     8.7324    -1.8582 C.2     
  17 C17            4.5982     9.8976    -1.5156 C.2     
  18 C18            4.8517    10.9445    -2.3875 C.2     
  19 C19            5.6198    10.6345    -3.4310 C.2     
  20 S20            6.0785     8.9388    -3.3480 S.3     
  21 N21            3.7646    10.0533    -0.3012 N.pl3   
  22 O22            3.1917    11.1065    -0.0867 O.2     
  23 O23            3.6521     9.1281     0.4830 O.2     
  24 C24           -1.9521     2.2713    -1.9152 C.3     
  25 H25           -1.6417    -0.3995    -2.1310 H       
  26 H26            0.4666    -1.6964    -1.9161 H       
  27 H27            2.5753    -0.4742    -1.4429 H       
  28 H28            5.9400     2.9556    -0.5365 H       
  29 H29            6.4403     6.3834    -2.2159 H       
  30 H30            7.1442     7.4136    -0.9461 H       
  31 H31            7.1048     4.9579    -0.3432 H       
  32 H32            6.2015     5.9820     0.8032 H       
  33 H33            2.9000     4.9254    -1.0411 H       
  34 H34            3.3690     5.9601     0.3330 H       
  35 H35            3.0206     7.3818    -1.6306 H       
  36 H36            4.1123     6.3654    -2.6023 H       
  37 H37            4.4558    11.9374    -2.2329 H       
  38 H38            5.9190    11.3218    -4.2084 H       
  39 H39           -2.4309     2.3589    -0.9399 H       
  40 H40           -1.7236     3.2658    -2.2983 H       
  41 H41           -2.6243     1.7616    -2.6055 H       
@<TRIPOS>BOND
   1    1    2 ar
   2    1    6 ar
   3    1   24 1
   4    2    3 ar
   5    2   25 1
   6    3    4 ar
   7    3   26 1
   8    4    5 ar
   9    4   27 1
  10    5    6 ar
  11    5    7 1
  12    7    8 3
  13    8    9 1
  14    9   13 2
  15    9   28 1
  16   10   11 1
  17   10   15 1
  18   10   16 1
  19   11   12 1
  20   11   29 1
  21   11   30 1
  22   12   13 1
  23   12   31 1
  24   12   32 1
  25   13   14 1
  26   14   15 1
  27   14   33 1
  28   14   34 1
  29   15   35 1
  30   15   36 1
  31   16   17 2
  32   16   20 1
  33   17   18 1
  34   17   21 1
  35   18   19 2
  36   18   37 1
  37   19   20 1
  38   19   38 1
  39   21   22 2
  40   21   23 2
  41   24   39 1
  42   24   40 1
  43   24   41 1

#	End of record

