#	Name: ASD01916121
#	Creating user name:	WinNT
#	Creation time:	15. 06. 2019 20:06

#	Modifying user name:	WinNT
#	Modification time:	15. 06. 2019 20:06

#	Program:	/corina/corina34_cracker 3.40 0067  02.08.2006

@<TRIPOS>MOLECULE
ASD01916121
  44   47    0    0    0
SMALL
NO_CHARGES


@<TRIPOS>ATOM
   1 C1            -1.6333     0.1066     3.5908 C.ar    
   2 C2            -1.4103    -1.1708     3.1144 C.ar    
   3 C3            -0.1122    -1.6315     2.9494 C.ar    
   4 C4             0.9590    -0.8077     3.2635 C.ar    
   5 C5             0.7307     0.4688     3.7396 C.ar    
   6 C6            -0.5641     0.9256     3.9032 C.ar    
   7 O7             0.1098    -2.8879     2.4813 O.3     
   8 C8             1.4719    -3.2951     2.3366 C.3     
   9 C9             1.5212    -4.7061     1.8098 C.2     
  10 C10            0.4136    -5.5074     1.5043 C.2     
  11 N11            2.6073    -5.3924     1.5533 N.2     
  12 N12            2.2263    -6.6504     1.0788 N.pl3   
  13 C13            0.8740    -6.6937     1.0644 C.2     
  14 C14            3.1052    -7.7439     0.6551 C.3     
  15 C15            2.3144    -9.0567     0.6555 C.3     
  16 N16            1.0153    -8.8399     0.0007 N.am    
  17 C17            0.0715    -7.8959     0.6263 C.3     
  18 C18            0.6971    -9.4825    -1.1404 C.2     
  19 C19           -0.6566    -9.3421    -1.7142 C.ar    
  20 O20            1.5243   -10.1778    -1.6975 O.2     
  21 C21           -1.7785    -9.3880    -0.8845 C.ar    
  22 C22           -3.0396    -9.2558    -1.4265 C.ar    
  23 C23           -3.1967    -9.0782    -2.7902 C.ar    
  24 C24           -2.0920    -9.0319    -3.6201 C.ar    
  25 C25           -0.8207    -9.1567    -3.0907 C.ar    
  26 F26            0.2587    -9.1110    -3.9019 F       
  27 H27           -2.6436     0.4673     3.7152 H       
  28 H28           -2.2458    -1.8103     2.8709 H       
  29 H29            1.9705    -1.1642     3.1363 H       
  30 H30            1.5642     1.1104     3.9847 H       
  31 H31           -0.7405     1.9240     4.2756 H       
  32 H32            1.9782    -2.6286     1.6383 H       
  33 H33            1.9690    -3.2515     3.3057 H       
  34 H34           -0.6239    -5.2243     1.6039 H       
  35 H35            3.4772    -7.5433    -0.3496 H       
  36 H36            3.9448    -7.8245     1.3455 H       
  37 H37            2.8733    -9.8185     0.1120 H       
  38 H38            2.1542    -9.3849     1.6825 H       
  39 H39           -0.4001    -8.3605     1.4922 H       
  40 H40           -0.6880    -7.5960    -0.0958 H       
  41 H41           -1.6590    -9.5271     0.1798 H       
  42 H42           -3.9076    -9.2912    -0.7848 H       
  43 H43           -4.1873    -8.9757    -3.2080 H       
  44 H44           -2.2220    -8.8938    -4.6833 H       
@<TRIPOS>BOND
   1    1    2 ar
   2    1    6 ar
   3    1   27 1
   4    2    3 ar
   5    2   28 1
   6    3    4 ar
   7    3    7 1
   8    4    5 ar
   9    4   29 1
  10    5    6 ar
  11    5   30 1
  12    6   31 1
  13    7    8 1
  14    8    9 1
  15    8   32 1
  16    8   33 1
  17    9   10 1
  18    9   11 2
  19   10   13 2
  20   10   34 1
  21   11   12 1
  22   12   13 1
  23   12   14 1
  24   13   17 1
  25   14   15 1
  26   14   35 1
  27   14   36 1
  28   15   16 1
  29   15   37 1
  30   15   38 1
  31   16   17 1
  32   16   18 am
  33   17   39 1
  34   17   40 1
  35   18   19 1
  36   18   20 2
  37   19   21 ar
  38   19   25 ar
  39   21   22 ar
  40   21   41 1
  41   22   23 ar
  42   22   42 1
  43   23   24 ar
  44   23   43 1
  45   24   25 ar
  46   24   44 1
  47   25   26 1

#	End of record

