#	Name: ASD01910727
#	Creating user name:	WinNT
#	Creation time:	15. 06. 2019 19:56

#	Modifying user name:	WinNT
#	Modification time:	15. 06. 2019 19:56

#	Program:	/corina/corina34_cracker 3.40 0067  02.08.2006

@<TRIPOS>MOLECULE
ASD01910727
  51   54    0    0    0
SMALL
NO_CHARGES


@<TRIPOS>ATOM
   1 C1             0.0599     1.7642    -0.3717 C.ar    
   2 C2             0.0023     0.3774    -0.4020 C.ar    
   3 C3             1.1880    -0.3338    -0.3562 C.ar    
   4 C4             2.3909     0.3606    -0.2819 C.ar    
   5 N5             2.4042     1.6845    -0.2547 N.ar    
   6 C6             1.2891     2.3886    -0.2975 C.ar    
   7 N7             3.5898    -0.3414    -0.2353 N.3     
   8 C8             4.7345     0.5762    -0.1596 C.3     
   9 C9             6.0168    -0.2302     0.0720 C.3     
  10 N10            6.1148    -1.2619    -0.9717 N.am    
  11 C11            4.9520    -2.1332    -1.2002 C.3     
  12 C12            3.7117    -1.2518    -1.3817 C.3     
  13 C13            7.2404    -1.4055    -1.6989 C.2     
  14 C14            7.3645    -2.5262    -2.6556 C.ar    
  15 O15            8.1534    -0.6138    -1.5684 O.2     
  16 C16            7.9775    -2.3242    -3.8942 C.ar    
  17 C17            8.0947    -3.3692    -4.7897 C.ar    
  18 C18            7.6074    -4.6199    -4.4685 C.ar    
  19 C19            6.9909    -4.8368    -3.2320 C.ar    
  20 C20            6.8755    -3.7870    -2.3210 C.ar    
  21 C21            6.4847    -6.1345    -2.9000 C.1     
  22 C22            6.0697    -7.1985    -2.6277 C.1     
  23 C23            5.5636    -8.4962    -2.2957 C.ar    
  24 C24            7.7395    -5.7539    -5.4522 C.3     
  25 C25            4.9425    -8.7336    -1.0616 C.ar    
  26 C26            4.4700    -9.9987    -0.7842 C.ar    
  27 N27            4.5961   -10.9770    -1.6608 N.ar    
  28 C28            5.1737   -10.7976    -2.8337 C.ar    
  29 C29            5.6699    -9.5639    -3.1977 C.ar    
  30 H30           -0.8473     2.3488    -0.4104 H       
  31 H31           -0.9468    -0.1347    -0.4595 H       
  32 H32            1.1798    -1.4136    -0.3776 H       
  33 H33            1.3385     3.4672    -0.2734 H       
  34 H34            4.8179     1.1317    -1.0937 H       
  35 H35            4.5885     1.2724     0.6663 H       
  36 H36            6.8810     0.4317     0.0148 H       
  37 H37            5.9793    -0.7040     1.0529 H       
  38 H38            5.1122    -2.7294    -2.0985 H       
  39 H39            4.8122    -2.7899    -0.3416 H       
  40 H40            2.8239    -1.8814    -1.4422 H       
  41 H41            3.8092    -0.6709    -2.2988 H       
  42 H42            8.3605    -1.3480    -4.1527 H       
  43 H43            8.5697    -3.2069    -5.7459 H       
  44 H44            6.4004    -3.9483    -1.3646 H       
  45 H45            8.6805    -6.2764    -5.2801 H       
  46 H46            6.9092    -6.4477    -5.3204 H       
  47 H47            7.7243    -5.3577    -6.4675 H       
  48 H48            4.8361    -7.9378    -0.3392 H       
  49 H49            3.9902   -10.1918     0.1639 H       
  50 H50            5.2547   -11.6277    -3.5199 H       
  51 H51            6.1414    -9.4244    -4.1593 H       
@<TRIPOS>BOND
   1    1    2 ar
   2    1    6 ar
   3    1   30 1
   4    2    3 ar
   5    2   31 1
   6    3    4 ar
   7    3   32 1
   8    4    5 ar
   9    4    7 1
  10    5    6 ar
  11    6   33 1
  12    7    8 1
  13    7   12 1
  14    8    9 1
  15    8   34 1
  16    8   35 1
  17    9   10 1
  18    9   36 1
  19    9   37 1
  20   10   11 1
  21   10   13 am
  22   11   12 1
  23   11   38 1
  24   11   39 1
  25   12   40 1
  26   12   41 1
  27   13   14 1
  28   13   15 2
  29   14   16 ar
  30   14   20 ar
  31   16   17 ar
  32   16   42 1
  33   17   18 ar
  34   17   43 1
  35   18   19 ar
  36   18   24 1
  37   19   20 ar
  38   19   21 1
  39   20   44 1
  40   21   22 3
  41   22   23 1
  42   23   25 ar
  43   23   29 ar
  44   24   45 1
  45   24   46 1
  46   24   47 1
  47   25   26 ar
  48   25   48 1
  49   26   27 ar
  50   26   49 1
  51   27   28 ar
  52   28   29 ar
  53   28   50 1
  54   29   51 1

#	End of record

