#	Name: ASD01811319
#	Creating user name:	WinNT
#	Creation time:	15. 06. 2019 19:26

#	Modifying user name:	WinNT
#	Modification time:	15. 06. 2019 19:26

#	Program:	/corina/corina34_cracker 3.40 0067  02.08.2006

@<TRIPOS>MOLECULE
ASD01811319
  68   73    0    0    0
SMALL
NO_CHARGES


@<TRIPOS>ATOM
   1 C1            -0.1203     1.3234    -0.0749 C.ar    
   2 C2            -0.1688    -0.0649    -0.1656 C.ar    
   3 N3            -1.4950    -0.4988    -0.2244 N.am    
   4 C4            -2.3675     0.5262    -0.1778 C.2     
   5 C5            -1.5501     1.7848    -0.0711 C.3     
   6 C6            -1.8931     2.5720     1.1963 C.3     
   7 N7            -2.3153     3.9226     0.7574 N.3     
   8 C8            -2.8142     3.7603    -0.6331 C.3     
   9 C9            -1.8297     2.7314    -1.2490 C.3     
  10 C10           -3.3658     4.4568     1.6345 C.3     
  11 C11           -2.8507     4.5344     2.9935 C.3     
  12 C12           -3.9134     5.0251     3.9979 C.3     
  13 C13           -4.0095     6.5234     3.8984 C.3     
  14 C14           -5.1222     6.9801     2.9356 C.3     
  15 C15           -5.1812     6.1367     1.6476 C.3     
  16 C16           -3.8148     5.8309     1.0966 C.3     
  17 C17            1.0878     1.9798    -0.0055 C.ar    
  18 C18            2.2695     1.2596    -0.0250 C.ar    
  19 C19            2.2333    -0.1196    -0.1140 C.ar    
  20 C20            1.0249    -0.7818    -0.1834 C.ar    
  21 O21           -3.5775     0.4493    -0.2114 O.2     
  22 C22           -1.8911    -1.9056    -0.3256 C.3     
  23 C23           -2.0600    -2.4806     1.0571 C.ar    
  24 C24           -3.2245    -2.2388     1.7681 C.ar    
  25 C25           -3.3833    -2.7648     3.0365 C.ar    
  26 C26           -2.3704    -3.5384     3.5982 C.ar    
  27 C27           -1.2023    -3.7778     2.8782 C.ar    
  28 C28           -1.0550    -3.2525     1.6099 C.ar    
  29 F29           -4.2054    -1.4877     1.2213 F       
  30 C30           -2.5350    -4.1058     4.9604 C.2     
  31 C31           -3.6557    -3.9464     5.7985 C.2     
  32 N32           -3.4258    -4.5924     6.9109 N.2     
  33 N33           -2.1599    -5.1848     6.8278 N.pl3   
  34 C34           -1.6307    -4.8812     5.6255 C.2     
  35 C35           -1.5227    -5.9987     7.8659 C.3     
  36 H36           -2.7069     2.0821     1.7309 H       
  37 H37           -1.0155     2.6458     1.8385 H       
  38 H38           -3.8308     3.3671    -0.6333 H       
  39 H39           -2.7671     4.7070    -1.1713 H       
  40 H40           -0.9130     3.2218    -1.5767 H       
  41 H41           -2.2979     2.1942    -2.0738 H       
  42 H42           -4.2179     3.7773     1.6183 H       
  43 H43           -2.5072     3.5458     3.2978 H       
  44 H44           -2.0043     5.2211     3.0115 H       
  45 H45           -4.8785     4.5794     3.7568 H       
  46 H46           -3.6192     4.7434     5.0090 H       
  47 H47           -4.2114     6.9305     4.8892 H       
  48 H48           -3.0554     6.9153     3.5459 H       
  49 H49           -6.0818     6.9074     3.4476 H       
  50 H50           -4.9482     8.0218     2.6661 H       
  51 H51           -5.6925     5.1986     1.8635 H       
  52 H52           -5.7510     6.6817     0.8951 H       
  53 H53           -3.1102     6.5979     1.4181 H       
  54 H54           -3.8571     5.8018     0.0078 H       
  55 H55            1.1134     3.0572     0.0638 H       
  56 H56            3.2177     1.7738     0.0289 H       
  57 H57            3.1556    -0.6815    -0.1291 H       
  58 H58            1.0047    -1.8594    -0.2527 H       
  59 H59           -2.8340    -1.9795    -0.8675 H       
  60 H60           -1.1208    -2.4625    -0.8591 H       
  61 H61           -4.2908    -2.5761     3.5909 H       
  62 H62           -0.4142    -4.3768     3.3101 H       
  63 H63           -0.1494    -3.4384     1.0516 H       
  64 H64           -4.5492    -3.3873     5.5631 H       
  65 H65           -0.6633    -5.1903     5.2580 H       
  66 H66           -1.7864    -7.0461     7.7194 H       
  67 H67           -0.4404    -5.8845     7.8040 H       
  68 H68           -1.8670    -5.6712     8.8469 H       
@<TRIPOS>BOND
   1    1    2 ar
   2    1   17 ar
   3    1    5 1
   4    2    3 1
   5    2   20 ar
   6    3    4 am
   7    3   22 1
   8    4    5 1
   9    4   21 2
  10    5    6 1
  11    5    9 1
  12    6    7 1
  13    6   36 1
  14    6   37 1
  15    7    8 1
  16    7   10 1
  17    8    9 1
  18    8   38 1
  19    8   39 1
  20    9   40 1
  21    9   41 1
  22   10   11 1
  23   10   16 1
  24   10   42 1
  25   11   12 1
  26   11   43 1
  27   11   44 1
  28   12   13 1
  29   12   45 1
  30   12   46 1
  31   13   14 1
  32   13   47 1
  33   13   48 1
  34   14   15 1
  35   14   49 1
  36   14   50 1
  37   15   16 1
  38   15   51 1
  39   15   52 1
  40   16   53 1
  41   16   54 1
  42   17   18 ar
  43   17   55 1
  44   18   19 ar
  45   18   56 1
  46   19   20 ar
  47   19   57 1
  48   20   58 1
  49   22   23 1
  50   22   59 1
  51   22   60 1
  52   23   24 ar
  53   23   28 ar
  54   24   25 ar
  55   24   29 1
  56   25   26 ar
  57   25   61 1
  58   26   27 ar
  59   26   30 1
  60   27   28 ar
  61   27   62 1
  62   28   63 1
  63   30   31 1
  64   30   34 2
  65   31   32 2
  66   31   64 1
  67   32   33 1
  68   33   34 1
  69   33   35 1
  70   34   65 1
  71   35   66 1
  72   35   67 1
  73   35   68 1

#	End of record

