#	Name: ASD01884369
#	Creating user name:	WinNT
#	Creation time:	15. 06. 2019 19:48

#	Modifying user name:	WinNT
#	Modification time:	15. 06. 2019 19:48

#	Program:	/corina/corina34_cracker 3.40 0067  02.08.2006

@<TRIPOS>MOLECULE
ASD01884369
  62   64    0    0    0
SMALL
NO_CHARGES


@<TRIPOS>ATOM
   1 C1             0.6899     1.7761     0.0822 C.2     
   2 C2             0.4261     0.4088     0.0963 C.2     
   3 C3            -0.8980    -0.0232     0.1838 C.2     
   4 C4            -1.9066     0.8818     0.2532 C.2     
   5 N5            -1.6576     2.2138     0.2400 N.am    
   6 C6            -0.3981     2.6841     0.1629 C.2     
   7 O7            -0.1937     3.8858     0.1522 O.2     
   8 C8            -2.7759     3.1571     0.3164 C.3     
   9 C9             2.0356     2.2576    -0.0062 C.1     
  10 N10            3.1032     2.6396    -0.0762 N.1     
  11 N11            1.9319    -1.0071     1.3739 N.3     
  12 C12            2.8579    -2.1475     1.3338 C.3     
  13 C13            3.2897    -2.5010     2.7590 C.3     
  14 N14            2.1017    -2.8190     3.5634 N.3     
  15 C15            1.1757    -1.6785     3.6035 C.3     
  16 C16            0.7439    -1.3251     2.1784 C.3     
  17 C17            2.4808    -3.2373     4.9196 C.3     
  18 C18           -3.0699     3.4819     1.7823 C.3     
  19 C19            1.5529    -0.5888     0.0177 C.3     
  20 C20           -4.2378     4.4671     1.8620 C.3     
  21 C21           -5.5075     3.7967     1.3335 C.3     
  22 C22           -4.4514     4.8881     3.3174 C.3     
  23 C23            1.2190    -3.4629     5.7551 C.3     
  24 O24            0.4526    -4.5247     5.1831 O.3     
  25 C25           -0.7082    -4.8546     5.8090 C.ar    
  26 C26           -1.5014    -5.8760     5.3075 C.ar    
  27 C27           -2.6808    -6.2102     5.9445 C.ar    
  28 C28           -3.0715    -5.5257     7.0829 C.ar    
  29 C29           -2.2807    -4.5059     7.5846 C.ar    
  30 C30           -1.0977    -4.1738     6.9531 C.ar    
  31 F31           -4.2255    -5.8529     7.7044 F       
  32 H32           -1.1204    -1.0800     0.1959 H       
  33 H33           -2.9270     0.5340     0.3199 H       
  34 H34           -2.5152     4.0732    -0.2136 H       
  35 H35           -3.6591     2.7114    -0.1412 H       
  36 H36            2.3594    -3.0050     0.8817 H       
  37 H37            3.7350    -1.8832     0.7431 H       
  38 H38            3.9539    -3.3649     2.7340 H       
  39 H39            3.8122    -1.6529     3.2015 H       
  40 H40            0.2987    -1.9428     4.1943 H       
  41 H41            1.6742    -0.8211     4.0557 H       
  42 H42            0.0798    -0.4611     2.2034 H       
  43 H43            0.2214    -2.1732     1.7358 H       
  44 H44            3.0526    -4.1638     4.8675 H       
  45 H45            3.0891    -2.4604     5.3827 H       
  46 H46           -3.3305     2.5658     2.3122 H       
  47 H47           -2.1867     3.9277     2.2399 H       
  48 H48            1.2288    -1.4587    -0.5535 H       
  49 H49            2.4107    -0.1301    -0.4741 H       
  50 H50           -4.0132     5.3466     1.2586 H       
  51 H51           -6.3395     4.4985     1.3903 H       
  52 H52           -5.3553     3.4967     0.2966 H       
  53 H53           -5.7322     2.9172     1.9369 H       
  54 H54           -3.5469     5.3657     3.6939 H       
  55 H55           -5.2835     5.5900     3.3742 H       
  56 H56           -4.6761     4.0087     3.9208 H       
  57 H57            1.5006    -3.7264     6.7746 H       
  58 H58            0.6232    -2.5503     5.7671 H       
  59 H59           -1.1972    -6.4096     4.4191 H       
  60 H60           -3.2986    -7.0054     5.5542 H       
  61 H61           -2.5868    -3.9726     8.4725 H       
  62 H62           -0.4809    -3.3786     7.3448 H       
@<TRIPOS>BOND
   1    1    2 2
   2    1    9 1
   3    1    6 1
   4    2    3 1
   5    2   19 1
   6    3    4 2
   7    3   32 1
   8    4    5 1
   9    4   33 1
  10    5    6 am
  11    5    8 1
  12    6    7 2
  13    8   18 1
  14    8   34 1
  15    8   35 1
  16    9   10 3
  17   11   12 1
  18   11   16 1
  19   11   19 1
  20   12   13 1
  21   12   36 1
  22   12   37 1
  23   13   14 1
  24   13   38 1
  25   13   39 1
  26   14   15 1
  27   14   17 1
  28   15   16 1
  29   15   40 1
  30   15   41 1
  31   16   42 1
  32   16   43 1
  33   17   23 1
  34   17   44 1
  35   17   45 1
  36   18   20 1
  37   18   46 1
  38   18   47 1
  39   19   48 1
  40   19   49 1
  41   20   21 1
  42   20   22 1
  43   20   50 1
  44   21   51 1
  45   21   52 1
  46   21   53 1
  47   22   54 1
  48   22   55 1
  49   22   56 1
  50   23   24 1
  51   23   57 1
  52   23   58 1
  53   24   25 1
  54   25   26 ar
  55   25   30 ar
  56   26   27 ar
  57   26   59 1
  58   27   28 ar
  59   27   60 1
  60   28   29 ar
  61   28   31 1
  62   29   30 ar
  63   29   61 1
  64   30   62 1

#	End of record

