#	Name: ASD01915858
#	Creating user name:	WinNT
#	Creation time:	15. 06. 2019 20:06

#	Modifying user name:	WinNT
#	Modification time:	15. 06. 2019 20:06

#	Program:	/corina/corina34_cracker 3.40 0067  02.08.2006

@<TRIPOS>MOLECULE
ASD01915858
  41   44    0    0    0
SMALL
NO_CHARGES


@<TRIPOS>ATOM
   1 C1            -0.0048     1.4523     0.1860 C.2     
   2 N2             0.0529     0.0927    -0.0258 N.pl3   
   3 C3            -1.1658    -0.6931    -0.2536 C.3     
   4 C4            -2.3328    -0.0411     0.4861 C.3     
   5 N5            -2.4041     1.3989     0.2636 N.am    
   6 C6            -1.2885     2.1674     0.2337 C.2     
   7 C7             1.2818     1.8887     0.3347 C.2     
   8 C8             2.0717     0.7376     0.2131 C.2     
   9 N9             1.2716    -0.2824     0.0065 N.2     
  10 C10            3.5749     0.6807     0.3036 C.3     
  11 O11            4.0882     1.9940     0.5355 O.3     
  12 C12            5.4371     2.1191     0.6433 C.ar    
  13 O13           -1.3459     3.3822     0.2460 O.2     
  14 C14            6.0036     3.3653     0.8687 C.ar    
  15 C15            6.2496     0.9999     0.5339 C.ar    
  16 C16            7.6206     1.1297     0.6438 C.ar    
  17 C17            8.1831     2.3737     0.8627 C.ar    
  18 C18            7.3751     3.4898     0.9778 C.ar    
  19 C19           -3.6366     1.9923     0.0790 C.2     
  20 N20           -3.7589     3.0454    -0.7763 N.am    
  21 C21           -4.9509     3.6393    -0.9723 C.2     
  22 C22           -6.0883     3.1807    -0.2958 C.2     
  23 C23           -5.9789     2.1162     0.5723 C.2     
  24 C24           -4.7348     1.5120     0.7561 C.2     
  25 O25           -5.0409     4.5821    -1.7430 O.2     
  26 H26           -1.3840    -0.7251    -1.3211 H       
  27 H27           -1.0199    -1.7070     0.1190 H       
  28 H28           -3.2633    -0.4963     0.1468 H       
  29 H29           -2.2209    -0.2274     1.5542 H       
  30 H30            1.6170     2.9007     0.5076 H       
  31 H31            3.8649     0.0268     1.1260 H       
  32 H32            3.9806     0.2917    -0.6303 H       
  33 H33            5.3729     4.2374     0.9583 H       
  34 H34            5.8107     0.0280     0.3633 H       
  35 H35            8.2535     0.2587     0.5590 H       
  36 H36            9.2551     2.4731     0.9483 H       
  37 H37            7.8168     4.4604     1.1484 H       
  38 H38           -2.9775     3.3716    -1.2496 H       
  39 H39           -7.0441     3.6582    -0.4532 H       
  40 H40           -6.8468     1.7515     1.1015 H       
  41 H41           -4.6322     0.6767     1.4329 H       
@<TRIPOS>BOND
   1    1    2 1
   2    1    7 2
   3    1    6 1
   4    2    3 1
   5    2    9 1
   6    3    4 1
   7    3   26 1
   8    3   27 1
   9    4    5 1
  10    4   28 1
  11    4   29 1
  12    5    6 am
  13    5   19 1
  14    6   13 2
  15    7    8 1
  16    7   30 1
  17    8    9 2
  18    8   10 1
  19   10   11 1
  20   10   31 1
  21   10   32 1
  22   11   12 1
  23   12   14 ar
  24   12   15 ar
  25   14   18 ar
  26   14   33 1
  27   15   16 ar
  28   15   34 1
  29   16   17 ar
  30   16   35 1
  31   17   18 ar
  32   17   36 1
  33   18   37 1
  34   19   20 1
  35   19   24 2
  36   20   21 am
  37   20   38 1
  38   21   22 1
  39   21   25 2
  40   22   23 2
  41   22   39 1
  42   23   24 1
  43   23   40 1
  44   24   41 1

#	End of record

