#	Name: ASD06170139
#	Creating user name:	WinNT
#	Creation time:	15. 06. 2019 21:05

#	Modifying user name:	WinNT
#	Modification time:	15. 06. 2019 21:05

#	Program:	/corina/corina34_cracker 3.40 0067  02.08.2006

@<TRIPOS>MOLECULE
ASD06170139
  71   75    0    0    0
SMALL
NO_CHARGES


@<TRIPOS>ATOM
   1 C1             2.2099    -1.9844     7.0530 C.2     
   2 N2             1.5003    -2.2616     5.9412 N.am    
   3 O3             3.4242    -1.8554     6.9870 O.co2   
   4 O4             1.6389    -1.8571     8.1269 O.co2   
   5 C5             2.1466    -2.4002     4.7234 C.2     
   6 N6             1.5575    -2.6673     3.5866 N.2     
   7 C7             2.4862    -2.7337     2.5956 C.ar    
   8 C8             3.7371    -2.4861     3.1852 C.ar    
   9 N9             3.4926    -2.2726     4.5309 N.pl3   
  10 C10            2.4079    -2.9831     1.2233 C.ar    
  11 C11            3.5539    -2.9844     0.4607 C.ar    
  12 C12            4.7915    -2.7388     1.0473 C.ar    
  13 C13            4.8839    -2.4902     2.4059 C.ar    
  14 O14            5.9155    -2.7435     0.2824 O.3     
  15 C15            6.7129    -3.8437     0.3265 C.ar    
  16 C16            7.8803    -3.8844    -0.4222 C.ar    
  17 C17            8.6908    -5.0014    -0.3776 C.ar    
  18 C18            8.3374    -6.0841     0.4169 C.ar    
  19 C19            7.1689    -6.0427     1.1661 C.ar    
  20 C20            6.3619    -4.9230     1.1246 C.ar    
  21 N21            9.1589    -7.2175     0.4623 N.am    
  22 C22            8.6117    -8.4411     0.6032 C.2     
  23 O23            7.4016    -8.5699     0.6057 O.2     
  24 N24           10.1603   -11.7081     1.0112 N.pl3   
  25 N25           11.3142   -10.9229     0.9300 N.am    
  26 C26           10.9467    -9.6344     0.7718 C.2     
  27 C27            9.4754    -9.6184     0.7536 C.2     
  28 C28            9.0669   -10.9290     0.9059 C.2     
  29 C29           12.6291   -11.3942     1.0013 C.ar    
  30 C30           13.0319   -12.4568     0.2028 C.ar    
  31 C31           14.3310   -12.9197     0.2757 C.ar    
  32 C32           15.2303   -12.3268     1.1428 C.ar    
  33 C33           14.8325   -11.2686     1.9392 C.ar    
  34 C34           13.5365   -10.7968     1.8666 C.ar    
  35 O35           11.6866    -8.6741     0.6654 O.2     
  36 C36            7.6382   -11.4067     0.9468 C.3     
  37 C37           10.1431   -13.1633     1.1795 C.3     
  38 C38            9.9855   -13.5033     2.6629 C.3     
  39 C39           10.0925   -15.0176     2.8532 C.3     
  40 C40           11.0881   -12.8093     3.4651 C.3     
  41 O41            8.7086   -13.0546     3.1213 O.3     
  42 C42            0.0456    -2.4162     6.0202 C.3     
  43 H43            4.1544    -2.0718     5.2110 H       
  44 H44            1.4505    -3.1747     0.7618 H       
  45 H45            3.4919    -3.1776    -0.6000 H       
  46 H46            5.8463    -2.2997     2.8575 H       
  47 H47            8.1549    -3.0425    -1.0404 H       
  48 H48            9.5993    -5.0332    -0.9607 H       
  49 H49            6.8935    -6.8844     1.7842 H       
  50 H50            5.4552    -4.8890     1.7104 H       
  51 H51           10.1216    -7.1218     0.3924 H       
  52 H52           12.3298   -12.9208    -0.4741 H       
  53 H53           14.6448   -13.7460    -0.3449 H       
  54 H54           16.2455   -12.6911     1.1984 H       
  55 H55           15.5372   -10.8078     2.6156 H       
  56 H56           13.2277    -9.9672     2.4854 H       
  57 H57            7.2823   -11.4001     1.9770 H       
  58 H58            7.0165   -10.7453     0.3434 H       
  59 H59            7.5825   -12.4202     0.5496 H       
  60 H60            9.3079   -13.5840     0.6196 H       
  61 H61           11.0779   -13.5830     0.8078 H       
  62 H62           11.0666   -15.3598     2.5035 H       
  63 H63            9.9803   -15.2598     3.9100 H       
  64 H64            9.3070   -15.5120     2.2817 H       
  65 H65           11.0119   -11.7304     3.3295 H       
  66 H66           10.9758   -13.0515     4.5219 H       
  67 H67           12.0621   -13.1515     3.1154 H       
  68 H68            7.9610   -13.4542     2.6560 H       
  69 H69           -0.4316    -1.4488     5.8635 H       
  70 H70           -0.2878    -3.1145     5.2525 H       
  71 H71           -0.2260    -2.8003     7.0035 H       
@<TRIPOS>BOND
   1    1    2 am
   2    1    3 ar
   3    1    4 ar
   4    2    5 1
   5    2   42 1
   6    5    6 2
   7    5    9 1
   8    6    7 1
   9    7    8 ar
  10    7   10 ar
  11    8    9 1
  12    8   13 ar
  13    9   43 1
  14   10   11 ar
  15   10   44 1
  16   11   12 ar
  17   11   45 1
  18   12   13 ar
  19   12   14 1
  20   13   46 1
  21   14   15 1
  22   15   16 ar
  23   15   20 ar
  24   16   17 ar
  25   16   47 1
  26   17   18 ar
  27   17   48 1
  28   18   19 ar
  29   18   21 1
  30   19   20 ar
  31   19   49 1
  32   20   50 1
  33   21   22 am
  34   21   51 1
  35   22   23 2
  36   22   27 1
  37   24   25 1
  38   24   28 1
  39   24   37 1
  40   25   26 am
  41   25   29 1
  42   26   27 1
  43   26   35 2
  44   27   28 2
  45   28   36 1
  46   29   30 ar
  47   29   34 ar
  48   30   31 ar
  49   30   52 1
  50   31   32 ar
  51   31   53 1
  52   32   33 ar
  53   32   54 1
  54   33   34 ar
  55   33   55 1
  56   34   56 1
  57   36   57 1
  58   36   58 1
  59   36   59 1
  60   37   38 1
  61   37   60 1
  62   37   61 1
  63   38   39 1
  64   38   40 1
  65   38   41 1
  66   39   62 1
  67   39   63 1
  68   39   64 1
  69   40   65 1
  70   40   66 1
  71   40   67 1
  72   41   68 1
  73   42   69 1
  74   42   70 1
  75   42   71 1

#	End of record

