#	Name: ASD05230005
#	Creating user name:	WinNT
#	Creation time:	15. 06. 2019 20:57

#	Modifying user name:	WinNT
#	Modification time:	15. 06. 2019 20:57

#	Program:	/corina/corina34_cracker 3.40 0067  02.08.2006

@<TRIPOS>MOLECULE
ASD05230005
  40   43    0    0    0
SMALL
NO_CHARGES


@<TRIPOS>ATOM
   1 C1             0.0286     1.4839     0.1751 C.3     
   2 N2             0.0417    -0.0078     0.1402 N.3     
   3 O3             2.5836     0.2341     1.5006 O.3     
   4 C4             1.5084     1.9460     0.1378 C.3     
   5 N5             1.8637    -1.6814    -0.3614 N.pl3   
   6 O6             4.1053     1.6127    -1.0752 O.2     
   7 C7             2.3021     0.6401     0.1597 C.3     
   8 C8             3.5471     0.6089    -0.6847 C.2     
   9 C9             4.0312    -0.7569    -0.9973 C.ar    
  10 C10            5.3283    -0.9507    -1.4757 C.ar    
  11 C11            5.7731    -2.2290    -1.7370 C.ar    
  12 C12            4.9418    -3.3183    -1.5249 C.ar    
  13 C13            3.6529    -3.1414    -1.0625 C.ar    
  14 C14            3.1808    -1.8627    -0.8039 C.ar    
  15 C15            1.3004    -0.3377    -0.5278 C.3     
  16 C16           -1.0502    -0.5013    -0.5774 C.ar    
  17 C17           -1.2184    -0.1576    -1.9127 C.ar    
  18 C18           -2.2989    -0.6478    -2.6195 C.ar    
  19 C19           -3.2129    -1.4797    -1.9992 C.ar    
  20 C20           -3.0486    -1.8238    -0.6700 C.ar    
  21 C21           -1.9674    -1.3415     0.0411 C.ar    
  22 C22            6.2365     0.2299    -1.7046 C.3     
  23 H23           -0.5051     1.8723    -0.6923 H       
  24 H24           -0.4473     1.8311     1.0922 H       
  25 H25            3.1213     0.8654     1.9980 H       
  26 H26            1.7124     2.5022    -0.7771 H       
  27 H27            1.7425     2.5505     1.0142 H       
  28 H28            1.3501    -2.4020     0.0358 H       
  29 H29            6.7753    -2.3830    -2.1087 H       
  30 H30            5.3061    -4.3153    -1.7239 H       
  31 H31            3.0136    -3.9969    -0.9016 H       
  32 H32            1.2277    -0.0962    -1.5883 H       
  33 H33           -0.5051     0.4924    -2.3977 H       
  34 H34           -2.4305    -0.3807    -3.6576 H       
  35 H35           -4.0573    -1.8614    -2.5541 H       
  36 H36           -3.7642    -2.4738    -0.1886 H       
  37 H37           -1.8372    -1.6142     1.0780 H       
  38 H38            6.7110     0.5109    -0.7643 H       
  39 H39            7.0026    -0.0368    -2.4326 H       
  40 H40            5.6529     1.0694    -2.0822 H       
@<TRIPOS>BOND
   1    1    2 1
   2    1    4 1
   3    1   23 1
   4    1   24 1
   5    2   15 1
   6    2   16 1
   7    3    7 1
   8    3   25 1
   9    4    7 1
  10    4   26 1
  11    4   27 1
  12    5   14 1
  13    5   15 1
  14    5   28 1
  15    6    8 2
  16    7    8 1
  17    7   15 1
  18    8    9 1
  19    9   10 ar
  20    9   14 ar
  21   10   11 ar
  22   10   22 1
  23   11   12 ar
  24   11   29 1
  25   12   13 ar
  26   12   30 1
  27   13   14 ar
  28   13   31 1
  29   15   32 1
  30   16   17 ar
  31   16   21 ar
  32   17   18 ar
  33   17   33 1
  34   18   19 ar
  35   18   34 1
  36   19   20 ar
  37   19   35 1
  38   20   21 ar
  39   20   36 1
  40   21   37 1
  41   22   38 1
  42   22   39 1
  43   22   40 1

#	End of record

