#	Name: ASD01882279
#	Creating user name:	WinNT
#	Creation time:	15. 06. 2019 19:44

#	Modifying user name:	WinNT
#	Modification time:	15. 06. 2019 19:44

#	Program:	/corina/corina34_cracker 3.40 0067  02.08.2006

@<TRIPOS>MOLECULE
ASD01882279
  51   53    0    0    0
SMALL
NO_CHARGES


@<TRIPOS>ATOM
   1 N1            -0.0168     1.3854     0.0097 N.pl3   
   2 C2             0.0021    -0.0041     0.0020 C.ar    
   3 C3            -1.1951    -0.7159     0.0096 C.ar    
   4 C4            -1.1786    -2.0915     0.0021 C.ar    
   5 C5             0.0397    -2.7742    -0.0137 C.ar    
   6 C6             1.2386    -2.0588    -0.0218 C.ar    
   7 C7             1.2177    -0.6828    -0.0190 C.ar    
   8 C8            -2.5093     0.0213     0.0266 C.3     
   9 F9            -3.5613    -0.9009     0.0316 F       
  10 F10           -2.5823     0.8181     1.1742 F       
  11 F11           -2.6045     0.8311    -1.1102 F       
  12 O12            1.2100    -5.2030    -0.0377 O.3     
  13 B13            0.0609    -4.3440    -0.0218 Du      
  14 O14           -1.0644    -5.2339    -0.0144 O.3     
  15 C15           -0.6744    -6.3087     0.8663 C.3     
  16 C16            0.8676    -6.2877     0.8504 C.3     
  17 C17            1.4133    -7.6112     0.3106 C.3     
  18 C18            1.4116    -6.0186     2.2549 C.3     
  19 C19           -1.1966    -6.0541     2.2817 C.3     
  20 C20           -1.1948    -7.6467     0.3374 C.3     
  21 C21            2.3082     4.3280    -0.5308 C.3     
  22 C22            1.0068     3.5245    -0.5987 C.3     
  23 C23            1.2419     2.1351     0.0017 C.3     
  24 C24            1.7545     2.2910     1.4367 C.3     
  25 C25            3.0270     3.1422     1.4260 C.3     
  26 O26            2.7462     4.4089     0.8271 O.3     
  27 H27           -0.8633     1.8589     0.0162 H       
  28 H28           -2.1071    -2.6431     0.0087 H       
  29 H29            2.1817    -2.5849    -0.0336 H       
  30 H30            2.1449    -0.1290    -0.0294 H       
  31 H31            2.5004    -7.5589     0.2514 H       
  32 H32            1.1244    -8.4227     0.9785 H       
  33 H33            1.0037    -7.7949    -0.6827 H       
  34 H34            1.0008    -5.0813     2.6303 H       
  35 H35            1.1227    -6.8335     2.9187 H       
  36 H36            2.4987    -5.9493     2.2164 H       
  37 H37           -2.2857    -6.0144     2.2656 H       
  38 H38           -0.8721    -6.8607     2.9392 H       
  39 H39           -0.8038    -5.1059     2.6488 H       
  40 H40           -0.8009    -7.8195    -0.6641 H       
  41 H41           -0.8704    -8.4499     0.9990 H       
  42 H42           -2.2840    -7.6240     0.3005 H       
  43 H43            3.0724     3.8335    -1.1304 H       
  44 H44            2.1359     5.3324    -0.9176 H       
  45 H45            0.2308     4.0395    -0.0325 H       
  46 H46            0.6946     3.4241    -1.6382 H       
  47 H47            1.9810     1.6003    -0.5949 H       
  48 H48            0.9936     2.7811     2.0440 H       
  49 H49            1.9769     1.3085     1.8528 H       
  50 H50            3.3725     3.2923     2.4488 H       
  51 H51            3.8006     2.6322     0.8520 H       
@<TRIPOS>BOND
   1    1    2 1
   2    1   23 1
   3    1   27 1
   4    2    3 ar
   5    2    7 ar
   6    3    4 ar
   7    3    8 1
   8    4    5 ar
   9    4   28 1
  10    5    6 ar
  11    5   13 1
  12    6    7 ar
  13    6   29 1
  14    7   30 1
  15    8    9 1
  16    8   10 1
  17    8   11 1
  18   12   13 1
  19   12   16 1
  20   13   14 1
  21   14   15 1
  22   15   16 1
  23   15   19 1
  24   15   20 1
  25   16   17 1
  26   16   18 1
  27   17   31 1
  28   17   32 1
  29   17   33 1
  30   18   34 1
  31   18   35 1
  32   18   36 1
  33   19   37 1
  34   19   38 1
  35   19   39 1
  36   20   40 1
  37   20   41 1
  38   20   42 1
  39   21   22 1
  40   21   26 1
  41   21   43 1
  42   21   44 1
  43   22   23 1
  44   22   45 1
  45   22   46 1
  46   23   24 1
  47   23   47 1
  48   24   25 1
  49   24   48 1
  50   24   49 1
  51   25   26 1
  52   25   50 1
  53   25   51 1

#	End of record

