#	Name: ASD01510020
#	Creating user name:	WinNT
#	Creation time:	15. 06. 2019 19:21

#	Modifying user name:	WinNT
#	Modification time:	15. 06. 2019 19:21

#	Program:	/corina/corina34_cracker 3.40 0067  02.08.2006

@<TRIPOS>MOLECULE
ASD01510020
  54   56    0    0    0
SMALL
NO_CHARGES


@<TRIPOS>ATOM
   1 C1            -0.4202     0.9690     0.4996 C.3     
   2 O2            -0.2820    -0.4530     0.5290 O.3     
   3 C3             0.2429    -1.0436    -0.5734 C.ar    
   4 N4             0.6051    -0.3119    -1.6218 N.ar    
   5 C5             1.1183    -0.8806    -2.7020 C.ar    
   6 N6             1.2916    -2.1908    -2.7856 N.ar    
   7 C7             0.9535    -2.9884    -1.7781 C.ar    
   8 C8             0.4153    -2.4269    -0.6203 C.ar    
   9 S9            -0.0485    -3.4412     0.7438 S.3     
  10 C10            1.4663    -3.4554     1.6436 C.ar    
  11 N11            1.5365    -4.1355     2.7789 N.ar    
  12 C12            2.6634    -4.1688     3.4840 C.ar    
  13 N13            2.7287    -4.8854     4.6744 N.am    
  14 C14            1.6192    -5.4652     5.1738 C.2     
  15 O15            0.5468    -5.2847     4.6371 O.2     
  16 C16            1.7113    -6.3377     6.3991 C.3     
  17 C17            3.7766    -3.4776     3.0153 C.ar    
  18 C18            3.6652    -2.7747     1.8194 C.ar    
  19 N19            2.5077    -2.7900     1.1649 N.ar    
  20 N20            4.7519    -2.0695     1.3127 N.am    
  21 C21            4.6669    -1.4769     0.1052 C.2     
  22 O22            3.6153    -1.4795    -0.4988 O.2     
  23 C23            5.8786    -0.8112    -0.4944 C.3     
  24 O24            1.1343    -4.3293    -1.8721 O.3     
  25 C25            1.6966    -4.8244    -3.0890 C.3     
  26 N26            1.4838    -0.0824    -3.7749 N.3     
  27 C27            2.0301    -0.8933    -4.8728 C.3     
  28 C28            2.3642     0.0186    -6.0563 C.3     
  29 O29            3.2759     1.0334    -5.6271 O.3     
  30 C30            2.7758     1.8425    -4.5592 C.3     
  31 C31            2.4459     0.9491    -3.3605 C.3     
  32 H32            0.5593     1.4264     0.3606 H       
  33 H33           -1.0744     1.2535    -0.3246 H       
  34 H34           -0.8511     1.3117     1.4403 H       
  35 H35            3.5728    -4.9680     5.1451 H       
  36 H36            1.5730    -5.7269     7.2912 H       
  37 H37            0.9363    -7.1031     6.3591 H       
  38 H38            2.6911    -6.8140     6.4331 H       
  39 H39            4.7051    -3.4863     3.5668 H       
  40 H40            5.5708    -2.0043     1.8284 H       
  41 H41            6.7227    -0.9103     0.1882 H       
  42 H42            6.1218    -1.2870    -1.4444 H       
  43 H43            5.6679     0.2453    -0.6605 H       
  44 H44            1.7873    -5.9091    -3.0324 H       
  45 H45            1.0487    -4.5570    -3.9238 H       
  46 H46            2.6826    -4.3846    -3.2389 H       
  47 H47            2.9350    -1.3992    -4.5362 H       
  48 H48            1.2917    -1.6336    -5.1808 H       
  49 H49            2.8223    -0.5699    -6.8512 H       
  50 H50            1.4505     0.4833    -6.4269 H       
  51 H51            3.5317     2.5732    -4.2714 H       
  52 H52            1.8741     2.3603    -4.8864 H       
  53 H53            2.0110     1.5537    -2.5647 H       
  54 H54            3.3575     0.4727    -2.9998 H       
@<TRIPOS>BOND
   1    1    2 1
   2    1   32 1
   3    1   33 1
   4    1   34 1
   5    2    3 1
   6    3    4 ar
   7    3    8 ar
   8    4    5 ar
   9    5    6 ar
  10    5   26 1
  11    6    7 ar
  12    7    8 ar
  13    7   24 1
  14    8    9 1
  15    9   10 1
  16   10   11 ar
  17   10   19 ar
  18   11   12 ar
  19   12   13 1
  20   12   17 ar
  21   13   14 am
  22   13   35 1
  23   14   15 2
  24   14   16 1
  25   16   36 1
  26   16   37 1
  27   16   38 1
  28   17   18 ar
  29   17   39 1
  30   18   19 ar
  31   18   20 1
  32   20   21 am
  33   20   40 1
  34   21   22 2
  35   21   23 1
  36   23   41 1
  37   23   42 1
  38   23   43 1
  39   24   25 1
  40   25   44 1
  41   25   45 1
  42   25   46 1
  43   26   27 1
  44   26   31 1
  45   27   28 1
  46   27   47 1
  47   27   48 1
  48   28   29 1
  49   28   49 1
  50   28   50 1
  51   29   30 1
  52   30   31 1
  53   30   51 1
  54   30   52 1
  55   31   53 1
  56   31   54 1

#	End of record

