#	Name: ASD03430421
#	Creating user name:	WinNT
#	Creation time:	15. 06. 2019 20:41

#	Modifying user name:	WinNT
#	Modification time:	15. 06. 2019 20:41

#	Program:	/corina/corina34_cracker 3.40 0067  02.08.2006

@<TRIPOS>MOLECULE
ASD03430421
  60   65    0    0    0
SMALL
NO_CHARGES


@<TRIPOS>ATOM
   1 O1            -2.3145     1.5737    -0.9308 O.3     
   2 C2            -2.6714     0.2024    -1.1229 C.3     
   3 C3            -2.1386    -0.6246     0.0194 C.2     
   4 N4            -0.9918    -0.2598     0.6328 N.am    
   5 C5            -0.3376     0.9071     0.2130 C.ar    
   6 C6            -1.0244     1.8263    -0.5790 C.ar    
   7 C7             0.9756     1.1510     0.5774 C.ar    
   8 C8             1.6042     2.3126     0.1524 C.ar    
   9 C9             0.9188     3.2258    -0.6347 C.ar    
  10 C10           -0.3930     2.9828    -1.0003 C.ar    
  11 O11           -2.7372    -1.6138     0.3860 O.2     
  12 C12           -0.4400    -1.0711     1.7208 C.3     
  13 O13            2.8938     2.5561     0.5084 O.3     
  14 N14            0.9284     5.6697    -2.9472 N.am    
  15 C15            1.6142     4.5660    -2.6050 C.2     
  16 C16            1.6052     4.4867    -1.0932 C.3     
  17 C17            0.8175     5.7038    -0.6662 C.ar    
  18 C18            0.4557     6.1999     0.5661 C.ar    
  19 C19           -0.2852     7.3658     0.6503 C.ar    
  20 C20           -0.6594     8.0279    -0.5049 C.ar    
  21 C21           -0.2982     7.5329    -1.7407 C.ar    
  22 C22            0.4479     6.3595    -1.8335 C.ar    
  23 O23            2.1410     3.7807    -3.3646 O.2     
  24 C24            0.7152     6.1026    -4.3304 C.3     
  25 C25            1.1149     7.5488    -4.4715 C.ar    
  26 C26            0.3378     8.4105    -5.2228 C.ar    
  27 C27            0.7044     9.7370    -5.3523 C.ar    
  28 C28            1.8479    10.2019    -4.7300 C.ar    
  29 C29            2.6245     9.3404    -3.9780 C.ar    
  30 C30            2.2555     8.0149    -3.8450 C.ar    
  31 C31            1.5521     5.2575    -5.2559 C.ar    
  32 C32            0.9417     4.4689    -6.2132 C.ar    
  33 C33            1.7094     3.6937    -7.0621 C.ar    
  34 C34            3.0874     3.7075    -6.9540 C.ar    
  35 C35            3.6978     4.4969    -5.9974 C.ar    
  36 C36            2.9304     5.2754    -5.1513 C.ar    
  37 H37           -3.7570     0.1119    -1.1610 H       
  38 H38           -2.2449    -0.1557    -2.0599 H       
  39 H39            1.5088     0.4397     1.1907 H       
  40 H40           -0.9241     3.6958    -1.6135 H       
  41 H41           -1.0877    -1.9296     1.8984 H       
  42 H42            0.5561    -1.4183     1.4460 H       
  43 H43           -0.3777    -0.4691     2.6273 H       
  44 H44            3.5462     2.2094    -0.1154 H       
  45 H45            2.6218     4.5306    -0.7024 H       
  46 H46            0.7495     5.6798     1.4659 H       
  47 H47           -0.5709     7.7573     1.6154 H       
  48 H48           -1.2380     8.9375    -0.4390 H       
  49 H49           -0.5943     8.0557    -2.6382 H       
  50 H50           -0.3379     5.9899    -4.5881 H       
  51 H51           -0.5556     8.0472    -5.7090 H       
  52 H52            0.0977    10.4101    -5.9398 H       
  53 H53            2.1348    11.2382    -4.8317 H       
  54 H54            3.5181     9.7036    -3.4921 H       
  55 H55            2.8602     7.3426    -3.2544 H       
  56 H56           -0.1349     4.4580    -6.2976 H       
  57 H57            1.2325     3.0769    -7.8095 H       
  58 H58            3.6872     3.1013    -7.6168 H       
  59 H59            4.7745     4.5074    -5.9127 H       
  60 H60            3.4074     5.8949    -4.4063 H       
@<TRIPOS>BOND
   1    1    2 1
   2    1    6 1
   3    2    3 1
   4    2   37 1
   5    2   38 1
   6    3    4 am
   7    3   11 2
   8    4    5 1
   9    4   12 1
  10    5    6 ar
  11    5    7 ar
  12    6   10 ar
  13    7    8 ar
  14    7   39 1
  15    8    9 ar
  16    8   13 1
  17    9   10 ar
  18    9   16 1
  19   10   40 1
  20   12   41 1
  21   12   42 1
  22   12   43 1
  23   13   44 1
  24   14   15 am
  25   14   22 1
  26   14   24 1
  27   15   16 1
  28   15   23 2
  29   16   17 1
  30   16   45 1
  31   17   18 ar
  32   17   22 ar
  33   18   19 ar
  34   18   46 1
  35   19   20 ar
  36   19   47 1
  37   20   21 ar
  38   20   48 1
  39   21   22 ar
  40   21   49 1
  41   24   25 1
  42   24   31 1
  43   24   50 1
  44   25   26 ar
  45   25   30 ar
  46   26   27 ar
  47   26   51 1
  48   27   28 ar
  49   27   52 1
  50   28   29 ar
  51   28   53 1
  52   29   30 ar
  53   29   54 1
  54   30   55 1
  55   31   32 ar
  56   31   36 ar
  57   32   33 ar
  58   32   56 1
  59   33   34 ar
  60   33   57 1
  61   34   35 ar
  62   34   58 1
  63   35   36 ar
  64   35   59 1
  65   36   60 1

#	End of record

