#	Name: ASD01882653
#	Creating user name:	WinNT
#	Creation time:	15. 06. 2019 19:45

#	Modifying user name:	WinNT
#	Modification time:	15. 06. 2019 19:45

#	Program:	/corina/corina34_cracker 3.40 0067  02.08.2006

@<TRIPOS>MOLECULE
ASD01882653
  50   53    0    0    0
SMALL
NO_CHARGES


@<TRIPOS>ATOM
   1 C1             0.7178     1.4942     1.0695 C.2     
   2 C2             0.7761     0.0323     1.1178 C.2     
   3 C3             1.2465    -0.6462    -0.0133 C.2     
   4 C4             1.6414     0.0965    -1.1426 C.2     
   5 C5             1.5738     1.4411    -1.1493 C.2     
   6 N6             1.1222     2.1431    -0.0714 N.pl3   
   7 N7             0.4798     3.5838     1.3948 N.2     
   8 N8             0.3345     2.4203     1.9253 N.2     
   9 C9             0.9541     3.4735     0.1826 C.2     
  10 C10            0.3645    -0.6831     2.2879 C.1     
  11 N11            0.0379    -1.2507     3.2162 N.1     
  12 N12            1.3225    -2.0264    -0.0210 N.pl3   
  13 C13            2.6200    -2.7040    -0.1472 C.3     
  14 C14            2.5474    -3.6951    -1.3131 C.3     
  15 C15            1.3627    -4.6404    -1.1007 C.3     
  16 C16            0.0628    -3.8332    -1.0712 C.3     
  17 C17            0.1078    -2.8437     0.1030 C.3     
  18 C18            1.3084    -5.6385    -2.2285 C.ar    
  19 C19            1.4093    -6.9950    -1.9596 C.ar    
  20 C20            1.3589    -7.9125    -3.0014 C.ar    
  21 C21            1.2083    -7.4701    -4.3033 C.ar    
  22 C22            1.1086    -6.1165    -4.5670 C.ar    
  23 C23            1.1524    -5.2026    -3.5304 C.ar    
  24 O24            1.5576    -7.4263    -0.6788 O.3     
  25 C25            0.3631    -7.7018     0.0555 C.3     
  26 F26            1.4573    -9.2350    -2.7434 F       
  27 C27            1.2580     4.6072    -0.7627 C.3     
  28 C28            0.0162     4.9198    -1.6001 C.3     
  29 H29            2.0050    -0.4212    -2.0179 H       
  30 H30            1.8858     1.9783    -2.0327 H       
  31 H31            3.3995    -1.9673    -0.3419 H       
  32 H32            2.8434    -3.2404     0.7750 H       
  33 H33            2.4142    -3.1490    -2.2470 H       
  34 H34            3.4705    -4.2729    -1.3574 H       
  35 H35            1.4841    -5.1679    -0.1547 H       
  36 H36           -0.0470    -3.2859    -2.0074 H       
  37 H37           -0.7825    -4.5094    -0.9433 H       
  38 H38            0.1305    -3.3912     1.0453 H       
  39 H39           -0.7708    -2.1993     0.0736 H       
  40 H40            1.1690    -8.1823    -5.1143 H       
  41 H41            0.9917    -5.7727    -5.5841 H       
  42 H42            1.0693    -4.1462    -3.7391 H       
  43 H43            0.6230    -8.0367     1.0596 H       
  44 H44           -0.2410    -6.7968     0.1193 H       
  45 H45           -0.2038    -8.4820    -0.4525 H       
  46 H46            1.5425     5.4905    -0.1911 H       
  47 H47            2.0778     4.3211    -1.4215 H       
  48 H48           -0.2684     4.0364    -2.1717 H       
  49 H49           -0.8037     5.2059    -0.9412 H       
  50 H50            0.2359     5.7397    -2.2838 H       
@<TRIPOS>BOND
   1    1    2 1
   2    1    6 1
   3    1    8 2
   4    2    3 2
   5    2   10 1
   6    3    4 1
   7    3   12 1
   8    4    5 2
   9    4   29 1
  10    5    6 1
  11    5   30 1
  12    6    9 1
  13    7    8 1
  14    7    9 2
  15    9   27 1
  16   10   11 3
  17   12   13 1
  18   12   17 1
  19   13   14 1
  20   13   31 1
  21   13   32 1
  22   14   15 1
  23   14   33 1
  24   14   34 1
  25   15   16 1
  26   15   18 1
  27   15   35 1
  28   16   17 1
  29   16   36 1
  30   16   37 1
  31   17   38 1
  32   17   39 1
  33   18   19 ar
  34   18   23 ar
  35   19   20 ar
  36   19   24 1
  37   20   21 ar
  38   20   26 1
  39   21   22 ar
  40   21   40 1
  41   22   23 ar
  42   22   41 1
  43   23   42 1
  44   24   25 1
  45   25   43 1
  46   25   44 1
  47   25   45 1
  48   27   28 1
  49   27   46 1
  50   27   47 1
  51   28   48 1
  52   28   49 1
  53   28   50 1

#	End of record

