#	Name: ASD01510077
#	Creating user name:	WinNT
#	Creation time:	15. 06. 2019 19:21

#	Modifying user name:	WinNT
#	Modification time:	15. 06. 2019 19:21

#	Program:	/corina/corina34_cracker 3.40 0067  02.08.2006

@<TRIPOS>MOLECULE
ASD01510077
  46   48    0    0    0
SMALL
NO_CHARGES


@<TRIPOS>ATOM
   1 C1             2.3574    -2.6598    -0.0319 C.2     
   2 C2             1.1965    -2.0101    -0.0205 C.2     
   3 C3            -0.0669    -2.7623    -0.0088 C.2     
   4 O4            -0.0506    -3.9783    -0.0095 O.2     
   5 N5            -1.2429    -2.1042     0.0026 N.am    
   6 C6            -2.4353    -2.8106    -0.0947 C.ar    
   7 C7            -3.6599    -2.1519     0.0238 C.ar    
   8 C8            -4.8212    -2.8947    -0.0795 C.ar    
   9 N9            -4.7389    -4.2000    -0.2864 N.ar    
  10 C10           -3.5615    -4.7994    -0.3949 C.ar    
  11 N11           -2.4261    -4.1220    -0.3072 N.ar    
  12 S12           -3.5050    -6.5389    -0.6700 S.3     
  13 C13           -5.2294    -6.8991    -0.7063 C.ar    
  14 C14           -5.9409    -6.8585    -1.9021 C.ar    
  15 C15           -5.2469    -6.5044    -3.1920 C.3     
  16 N16           -7.2343    -7.1352    -1.8909 N.ar    
  17 C17           -7.8515    -7.4477    -0.7616 C.ar    
  18 N18           -7.2070    -7.4961     0.3944 N.ar    
  19 C19           -5.9116    -7.2367     0.4593 C.ar    
  20 C20           -5.1864    -7.2948     1.7790 C.3     
  21 N21           -9.2086    -7.7312    -0.7902 N.3     
  22 C22           -9.7080    -8.0532     0.5545 C.3     
  23 C23          -11.2174    -8.3003     0.4869 C.3     
  24 O24          -11.4828    -9.3445    -0.4537 O.3     
  25 C25          -11.0103    -9.0637    -1.7740 C.3     
  26 C26           -9.4988    -8.8244    -1.7293 C.3     
  27 H27            3.2853    -2.1073    -0.0404 H       
  28 H28            2.3719    -3.7397    -0.0280 H       
  29 H29            1.1821    -0.9302    -0.0199 H       
  30 H30           -1.2569    -1.1373     0.0788 H       
  31 H31           -3.6995    -1.0859     0.1928 H       
  32 H32           -5.7852    -2.4157     0.0078 H       
  33 H33           -4.8687    -7.4122    -3.6622 H       
  34 H34           -5.9535    -6.0153    -3.8625 H       
  35 H35           -4.4163    -5.8297    -2.9844 H       
  36 H36           -4.8045    -8.3030     1.9397 H       
  37 H37           -4.3558    -6.5890     1.7685 H       
  38 H38           -5.8743    -7.0343     2.5834 H       
  39 H39           -9.2087    -8.9492     0.9233 H       
  40 H40           -9.5054    -7.2198     1.2273 H       
  41 H41          -11.5824    -8.5952     1.4707 H       
  42 H42          -11.7217    -7.3876     0.1694 H       
  43 H43          -11.2256    -9.9108    -2.4254 H       
  44 H44          -11.5087    -8.1733    -2.1573 H       
  45 H45           -9.1436    -8.5540    -2.7236 H       
  46 H46           -8.9962    -9.7327    -1.3970 H       
@<TRIPOS>BOND
   1    1    2 2
   2    1   27 1
   3    1   28 1
   4    2    3 1
   5    2   29 1
   6    3    4 2
   7    3    5 am
   8    5    6 1
   9    5   30 1
  10    6    7 ar
  11    6   11 ar
  12    7    8 ar
  13    7   31 1
  14    8    9 ar
  15    8   32 1
  16    9   10 ar
  17   10   11 ar
  18   10   12 1
  19   12   13 1
  20   13   14 ar
  21   13   19 ar
  22   14   15 1
  23   14   16 ar
  24   15   33 1
  25   15   34 1
  26   15   35 1
  27   16   17 ar
  28   17   18 ar
  29   17   21 1
  30   18   19 ar
  31   19   20 1
  32   20   36 1
  33   20   37 1
  34   20   38 1
  35   21   22 1
  36   21   26 1
  37   22   23 1
  38   22   39 1
  39   22   40 1
  40   23   24 1
  41   23   41 1
  42   23   42 1
  43   24   25 1
  44   25   26 1
  45   25   43 1
  46   25   44 1
  47   26   45 1
  48   26   46 1

#	End of record

