#	Name: ASD03240329
#	Creating user name:	WinNT
#	Creation time:	15. 06. 2019 20:34

#	Modifying user name:	WinNT
#	Modification time:	15. 06. 2019 20:34

#	Program:	/corina/corina34_cracker 3.40 0067  02.08.2006

@<TRIPOS>MOLECULE
ASD03240329
  73   72    0    0    0
SMALL
NO_CHARGES


@<TRIPOS>ATOM
   1 P1            -0.3342     1.4047    -0.5998 P.3     
   2 O2            -0.1176    -0.1701    -0.3441 O.3     
   3 O3             1.0482     2.1864    -0.3355 O.3     
   4 O4            -0.7835     1.6323    -2.0604 O.co2   
   5 O5            -1.4195     1.9381     0.3619 O.co2   
   6 N6            -0.1807    -2.5890     1.2889 N.4     
   7 C7             7.2851     9.8243     0.6662 C.3     
   8 C8             5.8408     9.4145     0.3712 C.3     
   9 C9             7.4020    11.3492     0.6209 C.3     
  10 C10            5.7240     7.8897     0.4165 C.3     
  11 C11            8.8463    11.7590     0.9159 C.3     
  12 C12            4.2797     7.4799     0.1215 C.3     
  13 C13            8.9632    13.2838     0.8705 C.3     
  14 C14            4.1628     5.9550     0.1669 C.3     
  15 C15           10.4074    13.6936     1.1655 C.3     
  16 C16           -0.6337    -2.5191    -0.1068 C.3     
  17 C17            2.7185     5.5452    -0.1281 C.3     
  18 C18           10.5243    15.2185     1.1202 C.3     
  19 C19           -1.2825    -2.2046     2.1812 C.3     
  20 C20            0.2437    -3.9610     1.5978 C.3     
  21 C21            0.9498    -1.6712     1.4833 C.3     
  22 C22            2.6017     4.0204    -0.0828 C.3     
  23 C23           11.9686    15.6283     1.4152 C.3     
  24 C24           -1.1834    -1.1206    -0.3951 C.3     
  25 C25            1.1574     3.6106    -0.3778 C.3     
  26 C26           12.0855    17.1531     1.3699 C.3     
  27 C27           13.5298    17.5629     1.6649 C.3     
  28 H28            7.5691     9.4674     1.6562 H       
  29 H29            7.9468     9.3868    -0.0814 H       
  30 H30            5.1791     9.8520     1.1188 H       
  31 H31            5.5569     9.7714    -0.6188 H       
  32 H32            7.1180    11.7061    -0.3691 H       
  33 H33            6.7403    11.7867     1.3684 H       
  34 H34            6.3857     7.4522    -0.3310 H       
  35 H35            6.0079     7.5328     1.4065 H       
  36 H36            9.1302    11.4021     1.9058 H       
  37 H37            9.5080    11.3215     0.1683 H       
  38 H38            3.6180     7.9174     0.8691 H       
  39 H39            3.9957     7.8368    -0.8685 H       
  40 H40            8.6792    13.6407    -0.1195 H       
  41 H41            8.3014    13.7213     1.6181 H       
  42 H42            4.8245     5.5175    -0.5807 H       
  43 H43            4.4468     5.5981     1.1568 H       
  44 H44           10.6914    13.3367     2.1555 H       
  45 H45           11.0692    13.2561     0.4180 H       
  46 H46            0.2052    -2.7240    -0.7718 H       
  47 H47           -1.4173    -3.2586    -0.2719 H       
  48 H48            2.0568     5.9827     0.6194 H       
  49 H49            2.4346     5.9021    -1.1181 H       
  50 H50           10.2404    15.5754     0.1302 H       
  51 H51            9.8626    15.6560     1.8678 H       
  52 H52            0.5965    -0.6418     1.4231 H       
  53 H53            1.3953    -1.8458     2.4626 H       
  54 H54            1.6963    -1.8450     0.7083 H       
  55 H55            1.0613    -4.2462     0.9357 H       
  56 H56            0.5799    -4.0128     2.6334 H       
  57 H57           -0.5951    -4.6419     1.4536 H       
  58 H58           -2.1213    -2.8855     2.0369 H       
  59 H59           -0.9464    -2.2564     3.2167 H       
  60 H60           -1.5974    -1.1865     1.9519 H       
  61 H61            3.2634     3.5829    -0.8304 H       
  62 H62            2.8856     3.6635     0.9072 H       
  63 H63           12.2526    15.2714     2.4052 H       
  64 H64           12.6303    15.1908     0.6676 H       
  65 H65           -1.9348    -0.8645     0.3517 H       
  66 H66           -1.6365    -1.1056    -1.3864 H       
  67 H67            0.8734     3.9675    -1.3678 H       
  68 H68            0.4957     4.0481     0.3698 H       
  69 H69           11.8015    17.5100     0.3799 H       
  70 H70           11.4238    17.5906     2.1174 H       
  71 H71           13.6130    18.6493     1.6326 H       
  72 H72           13.8137    17.2060     2.6548 H       
  73 H73           14.1915    17.1254     0.9173 H       
@<TRIPOS>BOND
   1    1    2 1
   2    1    3 1
   3    1    4 ar
   4    1    5 ar
   5    2   24 1
   6    3   25 1
   7    6   16 1
   8    6   19 1
   9    6   20 1
  10    6   21 1
  11    7    8 1
  12    7    9 1
  13    7   28 1
  14    7   29 1
  15    8   10 1
  16    8   30 1
  17    8   31 1
  18    9   11 1
  19    9   32 1
  20    9   33 1
  21   10   12 1
  22   10   34 1
  23   10   35 1
  24   11   13 1
  25   11   36 1
  26   11   37 1
  27   12   14 1
  28   12   38 1
  29   12   39 1
  30   13   15 1
  31   13   40 1
  32   13   41 1
  33   14   17 1
  34   14   42 1
  35   14   43 1
  36   15   18 1
  37   15   44 1
  38   15   45 1
  39   16   24 1
  40   16   46 1
  41   16   47 1
  42   17   22 1
  43   17   48 1
  44   17   49 1
  45   18   23 1
  46   18   50 1
  47   18   51 1
  48   19   58 1
  49   19   59 1
  50   19   60 1
  51   20   55 1
  52   20   56 1
  53   20   57 1
  54   21   52 1
  55   21   53 1
  56   21   54 1
  57   22   25 1
  58   22   61 1
  59   22   62 1
  60   23   26 1
  61   23   63 1
  62   23   64 1
  63   24   65 1
  64   24   66 1
  65   25   67 1
  66   25   68 1
  67   26   27 1
  68   26   69 1
  69   26   70 1
  70   27   71 1
  71   27   72 1
  72   27   73 1

#	End of record

