#	Name: ASD01881579
#	Creating user name:	WinNT
#	Creation time:	15. 06. 2019 19:42

#	Modifying user name:	WinNT
#	Modification time:	15. 06. 2019 19:42

#	Program:	/corina/corina34_cracker 3.40 0067  02.08.2006

@<TRIPOS>MOLECULE
ASD01881579
  55   59    0    0    0
SMALL
NO_CHARGES


@<TRIPOS>ATOM
   1 C1            -1.0670     2.9612     0.2110 C.3     
   2 C2            -1.5934     1.5237     0.1791 C.3     
   3 C3            -0.9543     0.7290     1.3213 C.3     
   4 C4             0.5687     0.7755     1.1788 C.3     
   5 N5             1.0227     2.1715     1.2159 N.3     
   6 C6             0.4593     2.9429     0.1007 C.3     
   7 C7            -3.0910     1.5319     0.3476 C.ar    
   8 C8            -3.9005     1.0033    -0.6403 C.ar    
   9 C9            -3.6548     2.0629     1.4926 C.ar    
  10 C10           -5.0284     2.0705     1.6472 C.ar    
  11 C11           -5.8383     1.5474     0.6565 C.ar    
  12 C12           -5.2742     1.0109    -0.4858 C.ar    
  13 C13            2.4897     2.2480     1.2209 C.3     
  14 C14            2.9189     3.6775     1.0120 C.2     
  15 C15            3.1824     4.4745     2.0822 C.2     
  16 C16            3.0539     4.1904    -0.2895 C.2     
  17 C17            3.4388     5.4695    -0.4822 C.2     
  18 N18            3.7013     6.2813     0.5817 N.pl3   
  19 C19            3.5826     5.8071     1.8652 C.2     
  20 C20            4.0959     7.5782     0.6990 C.2     
  21 N21            4.1961     7.8450     1.9756 N.2     
  22 N22            3.8961     6.8064     2.6735 N.2     
  23 C23            4.3682     8.5327    -0.4349 C.3     
  24 C24            3.0799     9.2739    -0.7981 C.3     
  25 C25            3.1735    10.3777    -1.8534 C.3     
  26 C26            2.5040     9.0456    -2.1971 C.3     
  27 C27            3.0473     3.9378     3.4840 C.3     
  28 F28            4.1639     3.1536     3.7927 F       
  29 F29            2.9628     5.0043     4.3855 F       
  30 F30            1.8898     3.1574     3.5750 F       
  31 H31           -1.4857     3.5207    -0.6256 H       
  32 H32           -1.3585     3.4348     1.1485 H       
  33 H33           -1.3357     1.0624    -0.7743 H       
  34 H34           -1.2440     1.1675     2.2763 H       
  35 H35           -1.2925    -0.3063     1.2781 H       
  36 H36            1.0272     0.2226     1.9987 H       
  37 H37            0.8586     0.3244     0.2299 H       
  38 H38            0.7497     2.4817    -0.8433 H       
  39 H39            0.8383     3.9642     0.1374 H       
  40 H40           -3.4599     0.5847    -1.5331 H       
  41 H41           -3.0220     2.4716     2.2666 H       
  42 H42           -5.4689     2.4847     2.5420 H       
  43 H43           -6.9115     1.5529     0.7774 H       
  44 H44           -5.9069     0.6021    -1.2598 H       
  45 H45            2.8689     1.8911     2.1784 H       
  46 H46            2.8886     1.6279     0.4181 H       
  47 H47            2.8489     3.5573    -1.1402 H       
  48 H48            3.5401     5.8530    -1.4867 H       
  49 H49            5.1277     9.2525    -0.1295 H       
  50 H50            4.7234     7.9754    -1.3016 H       
  51 H51            2.3739     9.4181     0.0197 H       
  52 H52            2.5289    11.2480    -1.7301 H       
  53 H53            4.1529    10.5759    -2.2889 H       
  54 H54            3.0429     8.3674    -2.8587 H       
  55 H55            1.4189     9.0394    -2.2998 H       
@<TRIPOS>BOND
   1    1    2 1
   2    1    6 1
   3    1   31 1
   4    1   32 1
   5    2    3 1
   6    2    7 1
   7    2   33 1
   8    3    4 1
   9    3   34 1
  10    3   35 1
  11    4    5 1
  12    4   36 1
  13    4   37 1
  14    5    6 1
  15    5   13 1
  16    6   38 1
  17    6   39 1
  18    7    8 ar
  19    7    9 ar
  20    8   12 ar
  21    8   40 1
  22    9   10 ar
  23    9   41 1
  24   10   11 ar
  25   10   42 1
  26   11   12 ar
  27   11   43 1
  28   12   44 1
  29   13   14 1
  30   13   45 1
  31   13   46 1
  32   14   15 2
  33   14   16 1
  34   15   27 1
  35   15   19 1
  36   16   17 2
  37   16   47 1
  38   17   18 1
  39   17   48 1
  40   18   19 1
  41   18   20 1
  42   19   22 2
  43   20   21 2
  44   20   23 1
  45   21   22 1
  46   23   24 1
  47   23   49 1
  48   23   50 1
  49   24   25 1
  50   24   26 1
  51   24   51 1
  52   25   26 1
  53   25   52 1
  54   25   53 1
  55   26   54 1
  56   26   55 1
  57   27   28 1
  58   27   29 1
  59   27   30 1

#	End of record

