#	Name: ASD05940096
#	Creating user name:	WinNT
#	Creation time:	15. 06. 2019 21:04

#	Modifying user name:	WinNT
#	Modification time:	15. 06. 2019 21:04

#	Program:	/corina/corina34_cracker 3.40 0067  02.08.2006

@<TRIPOS>MOLECULE
ASD05940096
  56   59    0    0    0
SMALL
NO_CHARGES


@<TRIPOS>ATOM
   1 C1             2.4265     1.3713     0.6592 C.ar    
   2 C2             2.5363    -0.0048     0.6673 C.ar    
   3 C3             1.3034     1.9750     0.1089 C.ar    
   4 C4             0.2908     1.1944    -0.4331 C.ar    
   5 C5             0.4006    -0.1817    -0.4249 C.ar    
   6 C6             1.5237    -0.7854     0.1253 C.ar    
   7 N7             1.6351    -2.1816     0.1337 N.am    
   8 C8             1.1610    -2.9017    -0.9024 C.2     
   9 C9             1.3728    -4.3932    -0.9429 C.3     
  10 O10            0.5640    -2.3492    -1.8021 O.2     
  11 N11            1.1918     3.3712     0.1010 N.am    
  12 C12            2.2946     4.1347    -0.0314 C.2     
  13 C13            2.1902     5.6342     0.0751 C.3     
  14 O14            3.3711     3.6147    -0.2363 O.2     
  15 C15            3.5754     6.2565    -0.1114 C.3     
  16 C16            3.4694     7.7790    -0.0032 C.3     
  17 C17            2.5249     8.3027    -1.0871 C.3     
  18 C18            1.1397     7.6804    -0.9006 C.3     
  19 C19            1.2457     6.1580    -1.0087 C.3     
  20 C20            0.5928     8.0570     0.4778 C.3     
  21 C21            1.6433     6.0108     1.4535 C.3     
  22 C22            1.5372     7.5333     1.5616 C.3     
  23 C23            2.9225     8.1555     1.3752 C.3     
  24 C24            0.7416    -4.9635    -2.2146 C.3     
  25 C25            2.8726    -4.6957    -0.9380 C.3     
  26 C26            0.8466    -6.4898    -2.1958 C.3     
  27 H27            3.2120     1.9782     1.0847 H       
  28 H28            3.4099    -0.4743     1.0949 H       
  29 H29           -0.5828     1.6639    -0.8607 H       
  30 H30           -0.3871    -0.7887    -0.8461 H       
  31 H31            2.0533    -2.6303     0.8851 H       
  32 H32            0.9071    -4.8501    -0.0697 H       
  33 H33            0.3209     3.7887     0.1908 H       
  34 H34            4.2482     5.8834     0.6608 H       
  35 H35            3.9650     5.9883    -1.0934 H       
  36 H36            4.4562     8.2223    -0.1361 H       
  37 H37            2.4494     9.3873    -1.0100 H       
  38 H38            2.9146     8.0344    -2.0691 H       
  39 H39            0.4669     8.0535    -1.6728 H       
  40 H40            1.6354     5.8897    -1.9908 H       
  41 H41            0.2589     5.7146    -0.8759 H       
  42 H42            0.5172     9.1416     0.5548 H       
  43 H43           -0.3941     7.6137     0.6106 H       
  44 H44            0.6564     5.5675     1.5863 H       
  45 H45            2.3161     5.6377     2.2257 H       
  46 H46            1.1476     7.8015     2.5436 H       
  47 H47            3.5953     7.7824     2.1473 H       
  48 H48            2.8469     9.2402     1.4522 H       
  49 H49           -0.3076    -4.6721    -2.2617 H       
  50 H50            1.2664    -4.5740    -3.0869 H       
  51 H51            3.3383    -4.2387    -1.8112 H       
  52 H52            3.3222    -4.2893    -0.0320 H       
  53 H53            3.0257    -5.7745    -0.9673 H       
  54 H54            1.8959    -6.7813    -2.1487 H       
  55 H55            0.3218    -6.8794    -1.3235 H       
  56 H56            0.3970    -6.8961    -3.1018 H       
@<TRIPOS>BOND
   1    1    2 ar
   2    1    3 ar
   3    1   27 1
   4    2    6 ar
   5    2   28 1
   6    3    4 ar
   7    3   11 1
   8    4    5 ar
   9    4   29 1
  10    5    6 ar
  11    5   30 1
  12    6    7 1
  13    7    8 am
  14    7   31 1
  15    8    9 1
  16    8   10 2
  17    9   24 1
  18    9   25 1
  19    9   32 1
  20   11   12 am
  21   11   33 1
  22   12   13 1
  23   12   14 2
  24   13   15 1
  25   13   21 1
  26   13   19 1
  27   15   16 1
  28   15   34 1
  29   15   35 1
  30   16   17 1
  31   16   23 1
  32   16   36 1
  33   17   18 1
  34   17   37 1
  35   17   38 1
  36   18   19 1
  37   18   20 1
  38   18   39 1
  39   19   40 1
  40   19   41 1
  41   20   22 1
  42   20   42 1
  43   20   43 1
  44   21   22 1
  45   21   44 1
  46   21   45 1
  47   22   23 1
  48   22   46 1
  49   23   47 1
  50   23   48 1
  51   24   26 1
  52   24   49 1
  53   24   50 1
  54   25   51 1
  55   25   52 1
  56   25   53 1
  57   26   54 1
  58   26   55 1
  59   26   56 1

#	End of record

