#	Name: ASD05490253
#	Creating user name:	WinNT
#	Creation time:	15. 06. 2019 21:01

#	Modifying user name:	WinNT
#	Modification time:	15. 06. 2019 21:01

#	Program:	/corina/corina34_cracker 3.40 0067  02.08.2006

@<TRIPOS>MOLECULE
ASD05490253
  58   61    0    0    0
SMALL
NO_CHARGES


@<TRIPOS>ATOM
   1 N1            -0.0140     1.3235    -0.0017 N.ar    
   2 C2             0.0026    -0.0005    -0.0086 C.ar    
   3 C3             1.1990    -0.7004    -0.0178 C.ar    
   4 C4             2.3953     0.0106    -0.0206 C.ar    
   5 C5             2.3404     1.4047    -0.0168 C.ar    
   6 C6             1.1047     2.0380    -0.0056 C.ar    
   7 N7             3.6186    -0.6479    -0.0229 N.3     
   8 C8             3.4706    -2.0318    -0.4926 C.3     
   9 C9             4.7908    -2.7480    -0.3696 C.ar    
  10 C10            5.1076    -3.4221     0.7947 C.ar    
  11 C11            6.3193    -4.0748     0.9034 C.ar    
  12 C12            7.2218    -4.0580    -0.1495 C.ar    
  13 C13            6.9034    -3.3890    -1.3123 C.ar    
  14 C14            5.6848    -2.7371    -1.4219 C.ar    
  15 N15            1.0388     3.4288     0.0012 N.pl3   
  16 O16           -1.1706    -0.6833    -0.0060 O.3     
  17 C17           -2.3717     0.0908     0.0041 C.3     
  18 N18            3.5364     2.1439    -0.0281 N.am    
  19 C19            4.6274     0.0692    -0.8098 C.3     
  20 C20            4.6764     1.5173    -0.3970 C.2     
  21 O21            5.7309     2.1170    -0.3961 O.2     
  22 C22           -3.5818    -0.8454     0.0056 C.3     
  23 C23           -4.8678    -0.0166     0.0164 C.3     
  24 C24           -6.0780    -0.9528     0.0179 C.3     
  25 C25            8.5355    -4.7749     0.0205 C.3     
  26 N26            9.1652    -5.0088    -1.2829 N.3     
  27 C27            9.2532    -3.7501    -2.0401 C.3     
  28 C28            7.8462    -3.3531    -2.4876 C.3     
  29 C29           10.4907    -5.6218    -1.1248 C.3     
  30 H30            1.2028    -1.7804    -0.0224 H       
  31 H31            2.7222    -2.5430     0.1130 H       
  32 H32            3.1542    -2.0297    -1.5357 H       
  33 H33            4.4087    -3.4381     1.6179 H       
  34 H34            6.5659    -4.6011     1.8137 H       
  35 H35            5.4371    -2.2108    -2.3318 H       
  36 H36            1.8549     3.9530    -0.0019 H       
  37 H37            0.1767     3.8735     0.0091 H       
  38 H38           -2.3941     0.7150     0.8974 H       
  39 H39           -2.4033     0.7240    -0.8825 H       
  40 H40            3.5435     3.0810     0.2224 H       
  41 H41            5.6040    -0.3863    -0.6458 H       
  42 H42            4.3737     0.0035    -1.8678 H       
  43 H43           -3.5594    -1.4696    -0.8877 H       
  44 H44           -3.5502    -1.4787     0.8922 H       
  45 H45           -4.8903     0.6076     0.9097 H       
  46 H46           -4.8994     0.6167    -0.8702 H       
  47 H47           -6.0555    -1.5770    -0.8754 H       
  48 H48           -6.0464    -1.5860     0.9045 H       
  49 H49           -6.9941    -0.3623     0.0256 H       
  50 H50            9.1991    -4.1686     0.6370 H       
  51 H51            8.3621    -5.7317     0.5131 H       
  52 H52            9.6693    -2.9687    -1.4043 H       
  53 H53            9.8890    -3.8922    -2.9140 H       
  54 H54            7.4993    -4.0494    -3.2512 H       
  55 H55            7.8692    -2.3454    -2.9025 H       
  56 H56           10.3990    -6.5419    -0.5476 H       
  57 H57           10.9056    -5.8488    -2.1069 H       
  58 H58           11.1512    -4.9297    -0.6025 H       
@<TRIPOS>BOND
   1    1    2 ar
   2    1    6 ar
   3    2    3 ar
   4    2   16 1
   5    3    4 ar
   6    3   30 1
   7    4    5 ar
   8    4    7 1
   9    5    6 ar
  10    5   18 1
  11    6   15 1
  12    7    8 1
  13    7   19 1
  14    8    9 1
  15    8   31 1
  16    8   32 1
  17    9   10 ar
  18    9   14 ar
  19   10   11 ar
  20   10   33 1
  21   11   12 ar
  22   11   34 1
  23   12   13 ar
  24   12   25 1
  25   13   14 ar
  26   13   28 1
  27   14   35 1
  28   15   36 1
  29   15   37 1
  30   16   17 1
  31   17   22 1
  32   17   38 1
  33   17   39 1
  34   18   20 am
  35   18   40 1
  36   19   20 1
  37   19   41 1
  38   19   42 1
  39   20   21 2
  40   22   23 1
  41   22   43 1
  42   22   44 1
  43   23   24 1
  44   23   45 1
  45   23   46 1
  46   24   47 1
  47   24   48 1
  48   24   49 1
  49   25   26 1
  50   25   50 1
  51   25   51 1
  52   26   27 1
  53   26   29 1
  54   27   28 1
  55   27   52 1
  56   27   53 1
  57   28   54 1
  58   28   55 1
  59   29   56 1
  60   29   57 1
  61   29   58 1

#	End of record

