#	Name: ASD01190012
#	Creating user name:	WinNT
#	Creation time:	15. 06. 2019 19:07

#	Modifying user name:	WinNT
#	Modification time:	15. 06. 2019 19:07

#	Program:	/corina/corina34_cracker 3.40 0067  02.08.2006

@<TRIPOS>MOLECULE
ASD01190012
  50   53    0    0    0
SMALL
NO_CHARGES


@<TRIPOS>ATOM
   1 C1            -0.0635     1.5047     0.0399 C.ar    
   2 C2            -0.0716     0.1172     0.0252 C.ar    
   3 C3             1.1266    -0.5752     0.0034 C.ar    
   4 C4             2.3365     0.1060    -0.0039 C.ar    
   5 C5             2.3401     1.4855     0.0009 C.ar    
   6 C6             1.1382     2.1801     0.0277 C.ar    
   7 C7             3.5997    -0.7141    -0.0042 C.3     
   8 C8             4.8111     0.1340    -0.3898 C.3     
   9 C9             4.7870     1.4110     0.4498 C.3     
  10 C10            3.6164     2.2746    -0.0373 C.3     
  11 C11            6.0478     2.2302     0.2655 C.3     
  12 C12            5.9269     3.4447     1.2280 C.3     
  13 C13            4.8333     4.3517     0.7040 C.3     
  14 C14            3.5087     3.5669     0.7593 C.3     
  15 C15            7.3487     1.5818     0.7512 C.3     
  16 C16            8.2741     2.8038     1.0025 C.3     
  17 C17            7.3405     4.0144     1.2538 C.3     
  18 O18            7.6167     4.5964     2.5293 O.3     
  19 O19           -1.2505    -0.5587     0.0325 O.3     
  20 C20            8.5839     5.6476     2.4914 C.3     
  21 C21            8.7963     6.1852     3.8831 C.2     
  22 O22            9.6675     7.1851     4.0906 O.3     
  23 O23            8.1824     5.7163     4.8121 O.2     
  24 C24            5.5589     2.9536     2.6295 C.3     
  25 H25           -0.9940     2.0528     0.0563 H       
  26 H26            1.1204    -1.6551    -0.0076 H       
  27 H27            1.1448     3.2600     0.0391 H       
  28 H28            3.7564    -1.1286     0.9916 H       
  29 H29            3.4944    -1.5315    -0.7175 H       
  30 H30            5.7274    -0.4210    -0.1889 H       
  31 H31            4.7596     0.3889    -1.4484 H       
  32 H32            4.6458     1.1579     1.5006 H       
  33 H33            3.8106     2.5483    -1.0743 H       
  34 H34            6.1360     2.5666    -0.7675 H       
  35 H35            4.7615     5.2426     1.3280 H       
  36 H36            5.0513     4.6370    -0.3252 H       
  37 H37            2.7101     4.1804     0.3423 H       
  38 H38            3.2744     3.3305     1.7973 H       
  39 H39            7.1820     1.0279     1.6751 H       
  40 H40            7.7670     0.9332    -0.0184 H       
  41 H41            8.8995     2.6258     1.8773 H       
  42 H42            8.8974     2.9873     0.1274 H       
  43 H43            7.4633     4.7562     0.4647 H       
  44 H44           -1.6027    -0.7449    -0.8486 H       
  45 H45            9.5262     5.2605     2.1037 H       
  46 H46            8.2257     6.4477     1.8436 H       
  47 H47            9.7698     7.4965     5.0004 H       
  48 H48            6.2987     2.2273     2.9659 H       
  49 H49            5.5405     3.7988     3.3175 H       
  50 H50            4.5752     2.4848     2.6035 H       
@<TRIPOS>BOND
   1    1    2 ar
   2    1    6 ar
   3    1   25 1
   4    2    3 ar
   5    2   19 1
   6    3    4 ar
   7    3   26 1
   8    4    5 ar
   9    4    7 1
  10    5    6 ar
  11    5   10 1
  12    6   27 1
  13    7    8 1
  14    7   28 1
  15    7   29 1
  16    8    9 1
  17    8   30 1
  18    8   31 1
  19    9   10 1
  20    9   11 1
  21    9   32 1
  22   10   14 1
  23   10   33 1
  24   11   12 1
  25   11   15 1
  26   11   34 1
  27   12   13 1
  28   12   24 1
  29   12   17 1
  30   13   14 1
  31   13   35 1
  32   13   36 1
  33   14   37 1
  34   14   38 1
  35   15   16 1
  36   15   39 1
  37   15   40 1
  38   16   17 1
  39   16   41 1
  40   16   42 1
  41   17   18 1
  42   17   43 1
  43   18   20 1
  44   19   44 1
  45   20   21 1
  46   20   45 1
  47   20   46 1
  48   21   22 1
  49   21   23 2
  50   22   47 1
  51   24   48 1
  52   24   49 1
  53   24   50 1

#	End of record

