#	Name: ASD01883860
#	Creating user name:	WinNT
#	Creation time:	15. 06. 2019 19:47

#	Modifying user name:	WinNT
#	Modification time:	15. 06. 2019 19:47

#	Program:	/corina/corina34_cracker 3.40 0067  02.08.2006

@<TRIPOS>MOLECULE
ASD01883860
  50   53    0    0    0
SMALL
NO_CHARGES


@<TRIPOS>ATOM
   1 O1            -0.2862     1.2827     0.0333 O.3     
   2 C2            -0.0965    -0.0613     0.0499 C.2     
   3 C3             1.3212    -1.9773    -0.1394 C.2     
   4 C4             1.1489    -0.5820    -0.1611 C.2     
   5 C5            -1.1826    -0.9280     0.2907 C.2     
   6 C6            -0.9965    -2.2629     0.3080 C.2     
   7 N7             2.0062    -3.9960    -0.1895 N.2     
   8 N8             2.3708    -2.7674    -0.3039 N.2     
   9 N9             0.2416    -2.7940     0.0934 N.pl3   
  10 C10            0.7237    -4.0686     0.0525 C.2     
  11 C11           -0.0760    -5.3306     0.2498 C.3     
  12 C12           -0.0827    -5.7034     1.7337 C.3     
  13 C13           -0.9425    -6.8954     2.1587 C.3     
  14 C14            0.5820    -7.0220     2.1338 C.3     
  15 C15            2.3233     0.3277    -0.4144 C.3     
  16 F16            1.8748     1.6483    -0.5253 F       
  17 F17            3.2269     0.2299     0.6491 F       
  18 F18            2.9584    -0.0503    -1.6022 F       
  19 C19           -1.1152     1.8081    -1.0053 C.3     
  20 C20           -1.3152     3.3093    -0.7879 C.3     
  21 C21           -2.2448     3.8503    -1.8435 C.ar    
  22 C22           -3.3617     5.7032    -2.8694 C.ar    
  23 C23           -3.9510     4.8430    -3.7804 C.ar    
  24 C24           -3.6896     3.4847    -3.7175 C.ar    
  25 C25           -2.8370     2.9898    -2.7491 C.ar    
  26 C26           -2.5090     5.2060    -1.9021 C.ar    
  27 C27           -1.9216     3.5479     0.5964 C.3     
  28 F28           -4.7850     5.3279    -4.7262 F       
  29 C29            0.0349     4.0228    -0.8832 C.3     
  30 H30           -2.1679    -0.5203     0.4623 H       
  31 H31           -1.8350    -2.9179     0.4936 H       
  32 H32           -1.0994    -5.1689    -0.0889 H       
  33 H33            0.3738    -6.1394    -0.3260 H       
  34 H34           -0.0023    -4.8676     2.4287 H       
  35 H35           -1.4274    -6.8440     3.1336 H       
  36 H36           -1.5034    -7.4141     1.3812 H       
  37 H37            1.0241    -7.6240     1.3400 H       
  38 H38            1.1001    -7.0540     3.0923 H       
  39 H39           -0.6376     1.6412    -1.9708 H       
  40 H40           -2.0826     1.3063    -0.9869 H       
  41 H41           -3.5648     6.7628    -2.9175 H       
  42 H42           -4.1490     2.8128    -4.4274 H       
  43 H43           -2.6330     1.9304    -2.6998 H       
  44 H44           -2.0493     5.8768    -1.1914 H       
  45 H45           -1.2492     3.1566     1.3599 H       
  46 H46           -2.0640     4.6174     0.7512 H       
  47 H47           -2.8834     3.0397     0.6642 H       
  48 H48            0.4669     3.8528    -1.8694 H       
  49 H49           -0.1075     5.0923    -0.7283 H       
  50 H50            0.7073     3.6315    -0.1197 H       
@<TRIPOS>BOND
   1    1    2 1
   2    1   19 1
   3    2    5 1
   4    2    4 2
   5    3    4 1
   6    3    9 1
   7    3    8 2
   8    4   15 1
   9    5    6 2
  10    5   30 1
  11    6    9 1
  12    6   31 1
  13    7    8 1
  14    7   10 2
  15    9   10 1
  16   10   11 1
  17   11   12 1
  18   11   32 1
  19   11   33 1
  20   12   13 1
  21   12   14 1
  22   12   34 1
  23   13   14 1
  24   13   35 1
  25   13   36 1
  26   14   37 1
  27   14   38 1
  28   15   16 1
  29   15   17 1
  30   15   18 1
  31   19   20 1
  32   19   39 1
  33   19   40 1
  34   20   21 1
  35   20   27 1
  36   20   29 1
  37   21   26 ar
  38   21   25 ar
  39   22   23 ar
  40   22   26 ar
  41   22   41 1
  42   23   24 ar
  43   23   28 1
  44   24   25 ar
  45   24   42 1
  46   25   43 1
  47   26   44 1
  48   27   45 1
  49   27   46 1
  50   27   47 1
  51   29   48 1
  52   29   49 1
  53   29   50 1

#	End of record

