#	Name: ASD04910211
#	Creating user name:	WinNT
#	Creation time:	15. 06. 2019 20:55

#	Modifying user name:	WinNT
#	Modification time:	15. 06. 2019 20:55

#	Program:	/corina/corina34_cracker 3.40 0067  02.08.2006

@<TRIPOS>MOLECULE
ASD04910211
  20   21    0    0    0
SMALL
NO_CHARGES


@<TRIPOS>ATOM
   1 C1            -0.0159     1.3190     0.0093 C.ar    
   2 N2             0.0021    -0.0041     0.0020 N.ar    
   3 C3             1.1476    -0.6652    -0.0125 C.ar    
   4 C4             2.3384     0.0460    -0.0201 C.ar    
   5 C5             2.2815     1.4318    -0.0121 C.ar    
   6 N6             1.1011     2.0284     0.0024 N.ar    
   7 N7            -1.2430     1.9825     0.0187 N.pl3   
   8 N8            -2.5076     1.3796     0.0218 N.2     
   9 C9            -3.4119     2.3243     0.0310 C.2     
  10 C10           -2.7574     3.5619     0.0341 C.2     
  11 C11           -1.4252     3.3293     0.0323 C.2     
  12 C12           -3.4207     4.9150     0.0441 C.3     
  13 F13           -4.8103     4.7531     0.0507 F       
  14 F14           -3.0278     5.6185     1.1878 F       
  15 F15           -3.0398     5.6296    -1.0967 F       
  16 Br16           4.0017    -0.8534    -0.0403 Br      
  17 H17            1.1556    -1.7452    -0.0180 H       
  18 H18            3.1896     2.0164    -0.0173 H       
  19 H19           -4.4815     2.1751     0.0352 H       
  20 H20           -0.6470     4.0782     0.0378 H       
@<TRIPOS>BOND
   1    1    2 ar
   2    1    6 ar
   3    1    7 1
   4    2    3 ar
   5    3    4 ar
   6    3   17 1
   7    4    5 ar
   8    4   16 1
   9    5    6 ar
  10    5   18 1
  11    7    8 1
  12    7   11 1
  13    8    9 2
  14    9   10 1
  15    9   19 1
  16   10   11 2
  17   10   12 1
  18   11   20 1
  19   12   13 1
  20   12   14 1
  21   12   15 1

#	End of record

