#	Name: ASD01150363
#	Creating user name:	WinNT
#	Creation time:	15. 06. 2019 19:04

#	Modifying user name:	WinNT
#	Modification time:	15. 06. 2019 19:04

#	Program:	/corina/corina34_cracker 3.40 0067  02.08.2006

@<TRIPOS>MOLECULE
ASD01150363
  42   44    0    0    0
SMALL
NO_CHARGES


@<TRIPOS>ATOM
   1 C1             0.3804     1.5257     0.7458 C.ar    
   2 C2             0.4560     0.1761     1.0298 C.ar    
   3 C3             1.2861    -0.6435     0.2891 C.ar    
   4 C4             2.0476    -0.1122    -0.7441 C.ar    
   5 C5             1.9737     1.2431    -1.0324 C.ar    
   6 C6             1.1392     2.0635    -0.2868 C.ar    
   7 N7             1.0618     3.4311    -0.5743 N.am    
   8 C8            -0.1429     4.0149    -0.7032 C.2     
   9 N9            -0.2509     5.3282    -0.9790 N.am    
  10 C10            0.8590     6.0799    -1.1311 C.2     
  11 C11            2.1740     5.4484    -0.9916 C.2     
  12 N12            2.2393     4.1744    -0.7183 N.2     
  13 O13            0.7693     7.2677    -1.3813 O.2     
  14 C14           -1.5745     5.9413    -1.1147 C.3     
  15 O15           -1.1496     3.3465    -0.5689 O.2     
  16 N16            2.8886    -0.9427    -1.4930 N.am    
  17 C17            2.5154    -2.2084    -1.7675 C.2     
  18 C18            3.3714    -3.0695    -2.6601 C.3     
  19 O19            1.4908    -2.6543    -1.2960 O.2     
  20 C20           -2.0359     6.4429     0.2294 C.ar    
  21 C21           -1.7324     7.7340     0.6238 C.ar    
  22 C22           -2.1519     8.1998     1.8526 C.ar    
  23 C23           -2.8845     7.3652     2.6990 C.ar    
  24 C24           -3.1872     6.0635     2.2946 C.ar    
  25 C25           -2.7659     5.6123     1.0610 C.ar    
  26 C26           -3.3228     7.8419     3.9762 C.1     
  27 N27           -3.6706     8.2201     4.9894 N.1     
  28 H28           -0.2724     2.1629     1.3239 H       
  29 H29           -0.1348    -0.2394     1.8328 H       
  30 H30            1.3432    -1.6983     0.5139 H       
  31 H31            2.5650     1.6587    -1.8349 H       
  32 H32            3.0762     6.0302    -1.1094 H       
  33 H33           -1.5187     6.7753    -1.8142 H       
  34 H34           -2.2815     5.2005    -1.4882 H       
  35 H35            3.7401    -0.6076    -1.8146 H       
  36 H36            4.0998    -3.6090    -2.0547 H       
  37 H37            2.7404    -3.7827    -3.1906 H       
  38 H38            3.8931    -2.4398    -3.3808 H       
  39 H39           -1.1654     8.3783    -0.0317 H       
  40 H40           -1.9140     9.2076     2.1593 H       
  41 H41           -3.7531     5.4126     2.9446 H       
  42 H42           -2.9994     4.6057     0.7469 H       
@<TRIPOS>BOND
   1    1    2 ar
   2    1    6 ar
   3    1   28 1
   4    2    3 ar
   5    2   29 1
   6    3    4 ar
   7    3   30 1
   8    4    5 ar
   9    4   16 1
  10    5    6 ar
  11    5   31 1
  12    6    7 1
  13    7    8 am
  14    7   12 1
  15    8    9 am
  16    8   15 2
  17    9   10 am
  18    9   14 1
  19   10   11 1
  20   10   13 2
  21   11   12 2
  22   11   32 1
  23   14   20 1
  24   14   33 1
  25   14   34 1
  26   16   17 am
  27   16   35 1
  28   17   18 1
  29   17   19 2
  30   18   36 1
  31   18   37 1
  32   18   38 1
  33   20   21 ar
  34   20   25 ar
  35   21   22 ar
  36   21   39 1
  37   22   23 ar
  38   22   40 1
  39   23   24 ar
  40   23   26 1
  41   24   25 ar
  42   24   41 1
  43   25   42 1
  44   26   27 3

#	End of record

