#	Name: ASD01150868
#	Creating user name:	WinNT
#	Creation time:	15. 06. 2019 19:05

#	Modifying user name:	WinNT
#	Modification time:	15. 06. 2019 19:05

#	Program:	/corina/corina34_cracker 3.40 0067  02.08.2006

@<TRIPOS>MOLECULE
ASD01150868
  49   51    0    0    0
SMALL
NO_CHARGES


@<TRIPOS>ATOM
   1 C1            -0.0180     1.4732     0.0101 C.ar    
   2 C2             0.0021    -0.0041     0.0020 C.2     
   3 N3            -1.1558    -0.6938     0.0094 N.am    
   4 O4             1.0629    -0.5975    -0.0113 O.2     
   5 C5            -1.1370    -2.0836     0.0017 C.2     
   6 N6            -0.0478    -2.8559    -0.0124 N.2     
   7 C7            -0.3959    -4.1265    -0.0155 C.2     
   8 N8            -1.7505    -4.2220    -0.0034 N.pl3   
   9 C9            -2.2479    -2.9178     0.0135 C.2     
  10 C10           -3.6019    -2.5267     0.0308 C.2     
  11 O11           -4.5752    -3.4630     0.0323 O.3     
  12 O12           -3.8941    -1.3445     0.0445 O.2     
  13 C13           -5.9254    -2.9952     0.0504 C.3     
  14 C14           -6.8796    -4.1912     0.0493 C.3     
  15 S15            0.7214    -5.4889    -0.0338 S.3     
  16 C16            2.2989    -4.6015    -0.0440 C.3     
  17 C17           -2.5386    -5.4569    -0.0023 C.3     
  18 C18            1.1800     2.1905     0.0026 C.ar    
  19 C19            1.1549     3.5691     0.0097 C.ar    
  20 C20           -0.0555     4.2425     0.0244 C.ar    
  21 C21           -1.2472     3.5364     0.0320 C.ar    
  22 C22           -1.2350     2.1576     0.0196 C.ar    
  23 Cl23          -0.0791     5.9783     0.0339 Cl      
  24 C24           -2.7961    -5.8873     1.4188 C.ar    
  25 C25           -3.9233    -5.4405     2.0824 C.ar    
  26 C26           -4.1609    -5.8349     3.3859 C.ar    
  27 C27           -3.2705    -6.6770     4.0268 C.ar    
  28 C28           -2.1411    -7.1246     3.3620 C.ar    
  29 C29           -1.9077    -6.7333     2.0562 C.ar    
  30 Cl30          -3.5680    -7.1721     5.6639 Cl      
  31 Cl31          -1.0221    -8.1813     4.1652 Cl      
  32 H32           -2.0023    -0.2203     0.0200 H       
  33 H33           -6.0913    -2.3987     0.9475 H       
  34 H34           -6.1095    -2.3827    -0.8323 H       
  35 H35           -6.7136    -4.7876    -0.8478 H       
  36 H36           -6.6954    -4.8036     0.9320 H       
  37 H37           -7.9094    -3.8343     0.0631 H       
  38 H38            2.3722    -3.9805     0.8487 H       
  39 H39            3.1193    -5.3191    -0.0559 H       
  40 H40            2.3551    -3.9707    -0.9312 H       
  41 H41           -3.4889    -5.2820    -0.5068 H       
  42 H42           -1.9885    -6.2395    -0.5249 H       
  43 H43            2.1244     1.6666    -0.0085 H       
  44 H44            2.0808     4.1251     0.0042 H       
  45 H45           -2.1879     4.0670     0.0438 H       
  46 H46           -2.1648     1.6082     0.0255 H       
  47 H47           -4.6187    -4.7826     1.5823 H       
  48 H48           -5.0417    -5.4851     3.9039 H       
  49 H49           -1.0271    -7.0820     1.5371 H       
@<TRIPOS>BOND
   1    1    2 1
   2    1   18 ar
   3    1   22 ar
   4    2    3 am
   5    2    4 2
   6    3    5 1
   7    3   32 1
   8    5    6 1
   9    5    9 2
  10    6    7 2
  11    7    8 1
  12    7   15 1
  13    8    9 1
  14    8   17 1
  15    9   10 1
  16   10   11 1
  17   10   12 2
  18   11   13 1
  19   13   14 1
  20   13   33 1
  21   13   34 1
  22   14   35 1
  23   14   36 1
  24   14   37 1
  25   15   16 1
  26   16   38 1
  27   16   39 1
  28   16   40 1
  29   17   24 1
  30   17   41 1
  31   17   42 1
  32   18   19 ar
  33   18   43 1
  34   19   20 ar
  35   19   44 1
  36   20   21 ar
  37   20   23 1
  38   21   22 ar
  39   21   45 1
  40   22   46 1
  41   24   25 ar
  42   24   29 ar
  43   25   26 ar
  44   25   47 1
  45   26   27 ar
  46   26   48 1
  47   27   28 ar
  48   27   30 1
  49   28   29 ar
  50   28   31 1
  51   29   49 1

#	End of record

