#	Name: ASD01948341
#	Creating user name:	WinNT
#	Creation time:	15. 06. 2019 20:14

#	Modifying user name:	WinNT
#	Modification time:	15. 06. 2019 20:14

#	Program:	/corina/corina34_cracker 3.40 0067  02.08.2006

@<TRIPOS>MOLECULE
ASD01948341
  56   58    0    0    0
SMALL
NO_CHARGES


@<TRIPOS>ATOM
   1 C1             0.2501     1.8417     0.2844 C.2     
   2 N2             0.3078     0.4805     0.3490 N.am    
   3 C3             1.4863    -0.1680     0.3135 C.2     
   4 C4             2.6387     1.9307     0.1423 C.2     
   5 C5             1.3809     2.5789     0.1824 C.2     
   6 C6             3.1211     3.4706    -2.1336 C.ar    
   7 C7             4.0186     3.4883    -1.0749 C.ar    
   8 N8             3.8066     2.6672     0.0378 N.pl3   
   9 C9             3.3331     4.2822    -3.2316 C.ar    
  10 C10            4.4384     5.1121    -3.2777 C.ar    
  11 C11            5.3358     5.1337    -2.2246 C.ar    
  12 C12            5.1298     4.3242    -1.1231 C.ar    
  13 N13            1.3065     3.9799     0.1163 N.am    
  14 S14           -0.1694     4.7305     0.0928 S.o2    
  15 C15           -0.8930     4.3572     1.7138 C.3     
  16 O16            1.5112    -1.3881     0.3725 O.2     
  17 C17           -0.9342    -0.2885     0.4594 C.3     
  18 F18            6.0058     4.3451    -0.0947 F       
  19 I19            4.7546     6.3398    -4.9456 I       
  20 O20            0.1422     6.1133    -0.0077 O.2     
  21 O21           -0.8852     4.0640    -0.9381 O.2     
  22 C22            2.6824     0.5483     0.2088 C.2     
  23 C23            4.0036    -0.1755     0.1693 C.3     
  24 C24           -2.2338     5.0098     2.0562 C.3     
  25 C25           -2.1695     3.5141     1.7405 C.3     
  26 C26            0.1083     4.1601     2.8538 C.3     
  27 C27            0.8987     5.4526     3.0675 C.3     
  28 C28           -0.0442     6.5511     3.5624 C.3     
  29 C29            1.9946     5.2141     4.1082 C.3     
  30 O30            2.8056     6.3850     4.2229 O.3     
  31 O31            0.6685     7.7866     3.6506 O.3     
  32 H32           -0.7093     2.3370     0.3104 H       
  33 H33            2.2600     2.8195    -2.1011 H       
  34 H34            4.4778     2.6139     0.7361 H       
  35 H35            2.6347     4.2683    -4.0552 H       
  36 H36            6.1983     5.7825    -2.2637 H       
  37 H37            2.1196     4.5078     0.0844 H       
  38 H38           -1.3017    -0.5303    -0.5379 H       
  39 H39           -0.7434    -1.2098     1.0096 H       
  40 H40           -1.6817     0.3026     0.9885 H       
  41 H41            3.8281    -1.2510     0.1427 H       
  42 H42            4.5559     0.1246    -0.7212 H       
  43 H43            4.5825     0.0762     1.0579 H       
  44 H44           -2.4027     5.2984     3.0936 H       
  45 H45           -2.6812     5.6635     1.3074 H       
  46 H46           -2.5745     3.1838     0.7840 H       
  47 H47           -2.2961     2.8187     2.5702 H       
  48 H48           -0.4277     3.9066     3.7684 H       
  49 H49            0.7945     3.3525     2.5991 H       
  50 H50            1.3528     5.7607     2.1257 H       
  51 H51           -0.8741     6.6595     2.8641 H       
  52 H52           -0.4297     6.2831     4.5461 H       
  53 H53            1.5377     4.9927     5.0727 H       
  54 H54            2.6136     4.3724     3.7976 H       
  55 H55            3.5227     6.3053     4.8667 H       
  56 H56            0.1533     8.5116     4.0301 H       
@<TRIPOS>BOND
   1    1    2 1
   2    1    5 2
   3    1   32 1
   4    2    3 am
   5    2   17 1
   6    3   22 1
   7    3   16 2
   8    4    5 1
   9    4    8 1
  10    4   22 2
  11    5   13 1
  12    6    7 ar
  13    6    9 ar
  14    6   33 1
  15    7    8 1
  16    7   12 ar
  17    8   34 1
  18    9   10 ar
  19    9   35 1
  20   10   11 ar
  21   10   19 1
  22   11   12 ar
  23   11   36 1
  24   12   18 1
  25   13   14 am
  26   13   37 1
  27   14   15 1
  28   14   20 2
  29   14   21 2
  30   15   24 1
  31   15   26 1
  32   15   25 1
  33   17   38 1
  34   17   39 1
  35   17   40 1
  36   22   23 1
  37   23   41 1
  38   23   42 1
  39   23   43 1
  40   24   25 1
  41   24   44 1
  42   24   45 1
  43   25   46 1
  44   25   47 1
  45   26   27 1
  46   26   48 1
  47   26   49 1
  48   27   28 1
  49   27   29 1
  50   27   50 1
  51   28   31 1
  52   28   51 1
  53   28   52 1
  54   29   30 1
  55   29   53 1
  56   29   54 1
  57   30   55 1
  58   31   56 1

#	End of record

