#	Name: ASD07931233
#	Creating user name:	WinNT
#	Creation time:	15. 06. 2019 21:13

#	Modifying user name:	WinNT
#	Modification time:	15. 06. 2019 21:13

#	Program:	/corina/corina34_cracker 3.40 0067  02.08.2006

@<TRIPOS>MOLECULE
ASD07931233
  46   51    0    0    0
SMALL
NO_CHARGES


@<TRIPOS>ATOM
   1 C1            -0.0169     1.3965     0.0097 C.ar    
   2 N2             0.0021    -0.0041     0.0020 N.am    
   3 N3            -0.0766    -0.8097     1.1408 N.2     
   4 C4            -0.0352    -2.0721     0.8247 C.2     
   5 C5             0.0814    -2.1540    -0.6492 C.2     
   6 C6             0.0932    -0.7683    -1.1077 C.2     
   7 O7             0.1767    -0.3787    -2.2611 O.2     
   8 C8            -0.0765    -3.3451     1.5694 C.ar    
   9 C9            -0.0033    -4.5445     0.8414 C.ar    
  10 N10            0.1049    -4.5233    -0.5384 N.pl3   
  11 C11            0.1440    -3.3861    -1.2513 C.2     
  12 C12           -0.1842    -3.3729     2.9559 C.ar    
  13 C13           -0.2191    -4.5848     3.6148 C.ar    
  14 C14           -0.1472    -5.7693     2.8998 C.ar    
  15 C15           -0.0406    -5.7550     1.5245 C.ar    
  16 C16            1.1746     2.1084     0.0022 C.ar    
  17 C17            1.1527     3.4899     0.0093 C.ar    
  18 C18           -0.0539     4.1645     0.0240 C.ar    
  19 C19           -1.2440     3.4599     0.0316 C.ar    
  20 C20           -1.2301     2.0773     0.0191 C.ar    
  21 F21           -2.3924     1.3887     0.0265 F       
  22 C22            0.1790    -5.7997    -1.2536 C.3     
  23 C23           -1.2119    -6.2571    -1.6102 C.2     
  24 C24           -1.8332    -6.0430    -2.7894 C.2     
  25 N25           -2.0337    -6.9474    -0.8139 N.2     
  26 C26           -3.1713    -7.1772    -1.4537 C.2     
  27 N27           -3.0720    -6.6177    -2.7017 N.pl3   
  28 N28           -4.2912    -7.8179    -1.0888 N.2     
  29 C29           -5.3086    -7.9192    -1.9114 C.2     
  30 C30           -5.2422    -7.3566    -3.1939 C.2     
  31 C31           -4.1146    -6.7089    -3.5773 C.2     
  32 H32            0.2292    -3.4422    -2.3264 H       
  33 H33           -0.2399    -2.4501     3.5142 H       
  34 H34           -0.3023    -4.6100     4.6913 H       
  35 H35           -0.1749    -6.7131     3.4242 H       
  36 H36            0.0147    -6.6848     0.9779 H       
  37 H37            2.1180     1.5829    -0.0089 H       
  38 H38            2.0799     4.0438     0.0038 H       
  39 H39           -0.0673     5.2445     0.0299 H       
  40 H40           -2.1850     3.9899     0.0434 H       
  41 H41            0.7643    -5.6724    -2.1642 H       
  42 H42            0.6548    -6.5457    -0.6171 H       
  43 H43           -1.4288    -5.5171    -3.6417 H       
  44 H44           -6.2021    -8.4392    -1.5988 H       
  45 H45           -6.0798    -7.4407    -3.8705 H       
  46 H46           -4.0437    -6.2684    -4.5608 H       
@<TRIPOS>BOND
   1    1    2 1
   2    1   16 ar
   3    1   20 ar
   4    2    3 1
   5    2    6 am
   6    3    4 2
   7    4    5 1
   8    4    8 1
   9    5    6 1
  10    5   11 2
  11    6    7 2
  12    8    9 ar
  13    8   12 ar
  14    9   10 1
  15    9   15 ar
  16   10   11 1
  17   10   22 1
  18   11   32 1
  19   12   13 ar
  20   12   33 1
  21   13   14 ar
  22   13   34 1
  23   14   15 ar
  24   14   35 1
  25   15   36 1
  26   16   17 ar
  27   16   37 1
  28   17   18 ar
  29   17   38 1
  30   18   19 ar
  31   18   39 1
  32   19   20 ar
  33   19   40 1
  34   20   21 1
  35   22   23 1
  36   22   41 1
  37   22   42 1
  38   23   25 1
  39   23   24 2
  40   24   27 1
  41   24   43 1
  42   25   26 2
  43   26   27 1
  44   26   28 1
  45   27   31 1
  46   28   29 2
  47   29   30 1
  48   29   44 1
  49   30   31 2
  50   30   45 1
  51   31   46 1

#	End of record

