#	Name: ASD03740071
#	Creating user name:	WinNT
#	Creation time:	15. 06. 2019 20:46

#	Modifying user name:	WinNT
#	Modification time:	15. 06. 2019 20:46

#	Program:	/corina/corina34_cracker 3.40 0067  02.08.2006

@<TRIPOS>MOLECULE
ASD03740071
  50   53    0    0    0
SMALL
NO_CHARGES


@<TRIPOS>ATOM
   1 C1            -0.4364     2.4063    -0.9304 C.ar    
   2 C2            -0.6332     1.0352    -1.0357 C.ar    
   3 C3             0.4211     0.1693    -0.9618 C.ar    
   4 C4             1.7109     0.6618    -0.7793 C.ar    
   5 C5             1.9119     2.0516    -0.6729 C.ar    
   6 C6             0.8169     2.9172    -0.7511 C.ar    
   7 N7             2.9439     0.0738    -0.6677 N.pl3   
   8 N8             3.9125     1.0675    -0.4935 N.2     
   9 C9             3.3502     2.2454    -0.4904 C.2     
  10 O10            3.9866     3.4376    -0.3444 O.3     
  11 C11            3.2055    -1.3666    -0.7214 C.3     
  12 C12            3.4622    -1.7777    -2.1483 C.ar    
  13 C13            5.4054     3.3995    -0.1780 C.3     
  14 C14            5.9400     4.8254    -0.0302 C.3     
  15 N15            5.3715     5.4389     1.1774 N.3     
  16 C16            4.7494    -1.7595    -2.6519 C.ar    
  17 C17            4.9849    -2.1365    -3.9608 C.ar    
  18 C18            3.9332    -2.5322    -4.7660 C.ar    
  19 C19            2.6462    -2.5513    -4.2621 C.ar    
  20 C20            2.4112    -2.1784    -2.9519 C.ar    
  21 C21            5.9345     6.7762     1.4033 C.3     
  22 C22            5.2170     7.4410     2.5802 C.3     
  23 C23            5.3900     6.5760     3.8317 C.3     
  24 C24            4.8395     5.1744     3.5539 C.3     
  25 C25            5.5679     4.5752     2.3487 C.3     
  26 H26           -1.2823     3.0746    -0.9955 H       
  27 H27           -1.6318     0.6489    -1.1773 H       
  28 H28            0.2546    -0.8946    -1.0444 H       
  29 H29            0.9617     3.9845    -0.6709 H       
  30 H30            4.0794    -1.6001    -0.1132 H       
  31 H31            2.3406    -1.9076    -0.3374 H       
  32 H32            5.6511     2.8250     0.7152 H       
  33 H33            5.8609     2.9291    -1.0493 H       
  34 H34            7.0265     4.7993     0.0526 H       
  35 H35            5.6562     5.4122    -0.9039 H       
  36 H36            5.5711    -1.4503    -2.0229 H       
  37 H37            5.9905    -2.1216    -4.3545 H       
  38 H38            4.1171    -2.8261    -5.7889 H       
  39 H39            1.8245    -2.8602    -4.8913 H       
  40 H40            1.4057    -2.1934    -2.5582 H       
  41 H41            6.9976     6.6894     1.6281 H       
  42 H42            5.8013     7.3824     0.5073 H       
  43 H43            5.6457     8.4274     2.7576 H       
  44 H44            4.1562     7.5407     2.3504 H       
  45 H45            6.4481     6.5082     4.0844 H       
  46 H46            4.8442     7.0236     4.6623 H       
  47 H47            4.9985     4.5413     4.4268 H       
  48 H48            3.7727     5.2384     3.3394 H       
  49 H49            5.1684     3.5829     2.1394 H       
  50 H50            6.6327     4.4988     2.5691 H       
@<TRIPOS>BOND
   1    1    2 ar
   2    1    6 ar
   3    1   26 1
   4    2    3 ar
   5    2   27 1
   6    3    4 ar
   7    3   28 1
   8    4    5 ar
   9    4    7 1
  10    5    6 ar
  11    5    9 1
  12    6   29 1
  13    7    8 1
  14    7   11 1
  15    8    9 2
  16    9   10 1
  17   10   13 1
  18   11   12 1
  19   11   30 1
  20   11   31 1
  21   12   16 ar
  22   12   20 ar
  23   13   14 1
  24   13   32 1
  25   13   33 1
  26   14   15 1
  27   14   34 1
  28   14   35 1
  29   15   21 1
  30   15   25 1
  31   16   17 ar
  32   16   36 1
  33   17   18 ar
  34   17   37 1
  35   18   19 ar
  36   18   38 1
  37   19   20 ar
  38   19   39 1
  39   20   40 1
  40   21   22 1
  41   21   41 1
  42   21   42 1
  43   22   23 1
  44   22   43 1
  45   22   44 1
  46   23   24 1
  47   23   45 1
  48   23   46 1
  49   24   25 1
  50   24   47 1
  51   24   48 1
  52   25   49 1
  53   25   50 1

#	End of record

