#	Name: ASD03091979
#	Creating user name:	WinNT
#	Creation time:	15. 06. 2019 20:31

#	Modifying user name:	WinNT
#	Modification time:	15. 06. 2019 20:31

#	Program:	/corina/corina34_cracker 3.40 0067  02.08.2006

@<TRIPOS>MOLECULE
ASD03091979
  62   66    0    0    0
SMALL
NO_CHARGES


@<TRIPOS>ATOM
   1 C1            -0.0320     1.4693     0.0688 C.ar    
   2 C2            -1.2781     2.1208     0.0998 C.ar    
   3 C3            -2.4650     1.3457     0.0843 C.ar    
   4 C4            -2.3839    -0.0600     0.0355 C.ar    
   5 C5            -1.1746    -0.6760     0.0053 C.ar    
   6 C6             0.0106     0.0753     0.0223 C.ar    
   7 O7             1.1314     2.1593     0.0883 O.3     
   8 C8             2.2381     1.5575     0.7603 C.3     
   9 N9             2.4130     0.1696     0.3299 N.am    
  10 C10            1.3347    -0.5770    -0.0029 C.2     
  11 C11           -3.6458    -0.8837     0.0172 C.3     
  12 N12           -4.2161    -0.9359     1.3700 N.3     
  13 C13           -5.6121    -1.3900     1.3354 C.3     
  14 O14            1.4524    -1.7471    -0.3129 O.2     
  15 C15            3.7560    -0.4115     0.2592 C.3     
  16 C16            4.6073     0.3499    -0.7779 C.3     
  17 C17            4.4697    -0.2555     1.6134 C.3     
  18 C18            5.7298     0.5952     1.3521 C.3     
  19 C19            5.3938     1.3857     0.0632 C.3     
  20 O20            4.8418    -1.5384     2.1213 O.3     
  21 C21           -3.7091     1.9964     0.1176 C.ar    
  22 C22           -1.3694     3.5211     0.1453 C.ar    
  23 C23           -6.2163    -1.2934     2.7381 C.3     
  24 C24           -5.4012    -2.1617     3.7005 C.3     
  25 C25           -3.9417    -1.6991     3.6814 C.3     
  26 C26           -3.4035    -1.7840     2.2513 C.3     
  27 C27           -3.7600     3.3565     0.1625 C.ar    
  28 C28           -2.5935     4.1173     0.1755 C.ar    
  29 C29           -5.9550    -2.0237     5.0953 C.2     
  30 O30           -6.9044    -1.3049     5.3000 O.2     
  31 O31           -5.3937    -2.6994     6.1102 O.3     
  32 C32           -5.9793    -2.5185     7.4265 C.3     
  33 H33           -1.1241    -1.7542    -0.0319 H       
  34 H34            3.1441     2.1202     0.5348 H       
  35 H35            2.0607     1.5802     1.8356 H       
  36 H36           -4.3661    -0.4299    -0.6635 H       
  37 H37           -3.4150    -1.8945    -0.3190 H       
  38 H38           -6.1816    -0.7617     0.6506 H       
  39 H39           -5.6491    -2.4247     0.9945 H       
  40 H40            3.6927    -1.4657    -0.0103 H       
  41 H41            5.2926    -0.3310    -1.2827 H       
  42 H42            3.9665     0.8537    -1.5015 H       
  43 H43            3.8169     0.2525     2.3233 H       
  44 H44            5.9082     1.2779     2.1828 H       
  45 H45            6.5964    -0.0461     1.1913 H       
  46 H46            6.3050     1.6898    -0.4520 H       
  47 H47            4.7711     2.2506     0.2919 H       
  48 H48            5.2965    -1.5070     2.9741 H       
  49 H49           -4.6225     1.4200     0.1072 H       
  50 H50           -0.4726     4.1229     0.1566 H       
  51 H51           -6.1923    -0.2568     3.0741 H       
  52 H52           -7.2477    -1.6453     2.7152 H       
  53 H53           -5.4571    -3.2041     3.3869 H       
  54 H54           -3.8819    -0.6688     4.0322 H       
  55 H55           -3.3480    -2.3408     4.3324 H       
  56 H56           -3.4508    -2.8168     1.9062 H       
  57 H57           -2.3688    -1.4417     2.2318 H       
  58 H58           -4.7190     3.8525     0.1874 H       
  59 H59           -2.6605     5.1947     0.2111 H       
  60 H60           -7.0226    -2.8336     7.4064 H       
  61 H61           -5.4323    -3.1191     8.1532 H       
  62 H62           -5.9228    -1.4670     7.7079 H       
@<TRIPOS>BOND
   1    1    6 ar
   2    1    7 1
   3    1    2 ar
   4    2    3 ar
   5    2   22 ar
   6    3    4 ar
   7    3   21 ar
   8    4    5 ar
   9    4   11 1
  10    5    6 ar
  11    5   33 1
  12    6   10 1
  13    7    8 1
  14    8    9 1
  15    8   34 1
  16    8   35 1
  17    9   10 am
  18    9   15 1
  19   10   14 2
  20   11   12 1
  21   11   36 1
  22   11   37 1
  23   12   13 1
  24   12   26 1
  25   13   23 1
  26   13   38 1
  27   13   39 1
  28   15   17 1
  29   15   16 1
  30   15   40 1
  31   16   19 1
  32   16   41 1
  33   16   42 1
  34   17   18 1
  35   17   20 1
  36   17   43 1
  37   18   19 1
  38   18   44 1
  39   18   45 1
  40   19   46 1
  41   19   47 1
  42   20   48 1
  43   21   27 ar
  44   21   49 1
  45   22   28 ar
  46   22   50 1
  47   23   24 1
  48   23   51 1
  49   23   52 1
  50   24   25 1
  51   24   29 1
  52   24   53 1
  53   25   26 1
  54   25   54 1
  55   25   55 1
  56   26   56 1
  57   26   57 1
  58   27   28 ar
  59   27   58 1
  60   28   59 1
  61   29   30 2
  62   29   31 1
  63   31   32 1
  64   32   60 1
  65   32   61 1
  66   32   62 1

#	End of record

