#	Name: ASD01150578
#	Creating user name:	WinNT
#	Creation time:	15. 06. 2019 19:04

#	Modifying user name:	WinNT
#	Modification time:	15. 06. 2019 19:04

#	Program:	/corina/corina34_cracker 3.40 0067  02.08.2006

@<TRIPOS>MOLECULE
ASD01150578
  53   55    0    0    0
SMALL
NO_CHARGES


@<TRIPOS>ATOM
   1 C1             0.7591     1.3780    -0.8599 C.ar    
   2 C2             0.7146     0.0169    -1.0924 C.ar    
   3 C3             2.0296    -0.3656     0.8822 C.ar    
   4 C4             2.0757     1.0006     1.1168 C.ar    
   5 C5             1.4397     1.8738     0.2453 C.ar    
   6 N6             1.4844     3.2532     0.4794 N.am    
   7 C7             0.3480     3.9704     0.4334 C.2     
   8 N8             0.3544     5.2983     0.6535 N.am    
   9 C9             1.5137     5.9326     0.9257 C.2     
  10 C10            2.7601     5.1540     0.9774 C.2     
  11 N11            2.7109     3.8654     0.7636 N.2     
  12 O12            1.5277     7.1330     1.1254 O.2     
  13 C13           -0.8984     6.0556     0.5968 C.3     
  14 O14           -0.7032     3.4099     0.1886 O.2     
  15 C15           -1.5291     6.0863     1.9652 C.ar    
  16 O16            3.9435     5.7634     1.2491 O.3     
  17 C17            5.1076     4.9352     1.2807 C.3     
  18 C18            1.3472    -0.8565    -0.2259 C.ar    
  19 C19           -1.2208     7.1074     2.8449 C.ar    
  20 C20           -1.7978     7.1396     4.1015 C.ar    
  21 C21           -2.6841     6.1513     4.4815 C.ar    
  22 C22           -2.9961     5.1238     3.6000 C.ar    
  23 C23           -2.4189     5.0974     2.3369 C.ar    
  24 N24            2.6705    -1.2496     1.7592 N.am    
  25 C25            2.9758    -0.8540     3.0109 C.2     
  26 C26            3.7539    -1.7686     3.9214 C.3     
  27 O27            2.6244     0.2381     3.4045 O.2     
  28 F28            1.3019    -2.1870    -0.4560 F       
  29 N29           -3.8919     4.1223     3.9813 N.pl3   
  30 C30           -4.4016     4.0792     5.3541 C.3     
  31 C31           -4.3218     3.1148     3.0084 C.3     
  32 H32            0.2681     2.0578    -1.5404 H       
  33 H33            0.1846    -0.3660    -1.9520 H       
  34 H34            2.6052     1.3843     1.9764 H       
  35 H35           -0.6926     7.0744     0.2687 H       
  36 H36           -1.5802     5.5780    -0.1069 H       
  37 H37            5.9817     5.5456     1.5077 H       
  38 H38            4.9888     4.1707     2.0485 H       
  39 H39            5.2402     4.4576     0.3099 H       
  40 H40           -0.5276     7.8814     2.5503 H       
  41 H41           -1.5545     7.9384     4.7864 H       
  42 H42           -3.1340     6.1768     5.4630 H       
  43 H43           -2.6593     4.3001     1.6493 H       
  44 H44            2.8946    -2.1465     1.4657 H       
  45 H45            3.9790    -2.6975     3.3974 H       
  46 H46            4.6842    -1.2829     4.2157 H       
  47 H47            3.1613    -1.9871     4.8098 H       
  48 H48           -5.3158     4.6690     5.4209 H       
  49 H49           -4.6144     3.0466     5.6304 H       
  50 H50           -3.6538     4.4901     6.0323 H       
  51 H51           -3.7776     3.2560     2.0746 H       
  52 H52           -4.1164     2.1191     3.4016 H       
  53 H53           -5.3911     3.2197     2.8252 H       
@<TRIPOS>BOND
   1    1    2 ar
   2    1    5 ar
   3    1   32 1
   4    2   18 ar
   5    2   33 1
   6    3    4 ar
   7    3   24 1
   8    3   18 ar
   9    4    5 ar
  10    4   34 1
  11    5    6 1
  12    6    7 am
  13    6   11 1
  14    7    8 am
  15    7   14 2
  16    8    9 am
  17    8   13 1
  18    9   10 1
  19    9   12 2
  20   10   11 2
  21   10   16 1
  22   13   15 1
  23   13   35 1
  24   13   36 1
  25   15   19 ar
  26   15   23 ar
  27   16   17 1
  28   17   37 1
  29   17   38 1
  30   17   39 1
  31   18   28 1
  32   19   20 ar
  33   19   40 1
  34   20   21 ar
  35   20   41 1
  36   21   22 ar
  37   21   42 1
  38   22   23 ar
  39   22   29 1
  40   23   43 1
  41   24   25 am
  42   24   44 1
  43   25   26 1
  44   25   27 2
  45   26   45 1
  46   26   46 1
  47   26   47 1
  48   29   30 1
  49   29   31 1
  50   30   48 1
  51   30   49 1
  52   30   50 1
  53   31   51 1
  54   31   52 1
  55   31   53 1

#	End of record

