#	Name: ASD01881379
#	Creating user name:	WinNT
#	Creation time:	15. 06. 2019 19:42

#	Modifying user name:	WinNT
#	Modification time:	15. 06. 2019 19:42

#	Program:	/corina/corina34_cracker 3.40 0067  02.08.2006

@<TRIPOS>MOLECULE
ASD01881379
  53   57    0    0    0
SMALL
NO_CHARGES


@<TRIPOS>ATOM
   1 C1            -0.0161     1.3379     0.0094 C.2     
   2 C2             0.0021    -0.0041     0.0020 C.2     
   3 N3             1.2944    -0.4537    -0.0127 N.pl3   
   4 C4             2.1626     0.6136    -0.0153 C.ar    
   5 C5             1.3797     1.7842    -0.0015 C.ar    
   6 C6             1.6944    -1.8630    -0.0241 C.3     
   7 C7             1.1512    -2.5574     1.2263 C.3     
   8 C8             1.1284    -2.5437    -1.2720 C.3     
   9 C9             1.5461    -4.0155    -1.2839 C.3     
  10 C10            1.0029    -4.7099    -0.0334 C.3     
  11 C11            1.5689    -4.0292     1.2144 C.3     
  12 C12            3.5514     0.7145    -0.0285 C.ar    
  13 C13            4.1509     1.9402    -0.0280 C.ar    
  14 C14            3.3834     3.1109    -0.0138 C.ar    
  15 C15            1.9957     3.0341    -0.0007 C.ar    
  16 C16            4.0511     4.4330    -0.0125 C.2     
  17 C17            4.8094     4.8414    -1.1002 C.2     
  18 C18            3.9217     5.3024     1.0945 C.2     
  19 C19            4.5368     6.5037     1.0792 C.2     
  20 N20            5.2824     6.8944     0.0116 N.am    
  21 C21            5.4277     6.0999    -1.0648 C.2     
  22 C22            5.9349     8.2059     0.0311 C.3     
  23 C23            7.3325     8.0713     0.6390 C.3     
  24 Cl24           4.9908     3.8096    -2.4844 Cl      
  25 O25            6.1027     6.4737    -2.0112 O.2     
  26 O26            1.3930    -6.0846    -0.0445 O.3     
  27 C27            8.2246     9.3143     0.6414 C.3     
  28 C28            7.6076     8.8130     1.9486 C.3     
  29 H29           -0.8927     1.9688     0.0172 H       
  30 H30           -0.8739    -0.6358     0.0075 H       
  31 H31            2.7822    -1.9319    -0.0345 H       
  32 H32            1.5545    -2.0725     2.1153 H       
  33 H33            0.0635    -2.4885     1.2367 H       
  34 H34            0.0406    -2.4748    -1.2617 H       
  35 H35            1.5153    -2.0490    -2.1629 H       
  36 H36            1.1428    -4.5005    -2.1729 H       
  37 H37            2.6338    -4.0844    -1.2942 H       
  38 H38           -0.0849    -4.6410    -0.0231 H       
  39 H39            2.6567    -4.0982     1.2041 H       
  40 H40            1.1820    -4.5240     2.1053 H       
  41 H41            4.1559    -0.1803    -0.0387 H       
  42 H42            5.2287     2.0079    -0.0382 H       
  43 H43            1.4003     3.9351     0.0106 H       
  44 H44            3.3321     5.0066     1.9497 H       
  45 H45            4.4349     7.1645     1.9274 H       
  46 H46            6.0167     8.5862    -0.9871 H       
  47 H47            5.3429     8.8974     0.6307 H       
  48 H48            7.8161     7.1050     0.4963 H       
  49 H49            1.0825    -6.5878     0.7206 H       
  50 H50            9.2952     9.1657     0.5006 H       
  51 H51            7.8158    10.2280     0.2098 H       
  52 H52            6.7930     9.3969     2.3771 H       
  53 H53            8.2724     8.3346     2.6679 H       
@<TRIPOS>BOND
   1    1    2 2
   2    1    5 1
   3    1   29 1
   4    2    3 1
   5    2   30 1
   6    3    4 1
   7    3    6 1
   8    4    5 ar
   9    4   12 ar
  10    5   15 ar
  11    6    7 1
  12    6    8 1
  13    6   31 1
  14    7   11 1
  15    7   32 1
  16    7   33 1
  17    8    9 1
  18    8   34 1
  19    8   35 1
  20    9   10 1
  21    9   36 1
  22    9   37 1
  23   10   11 1
  24   10   26 1
  25   10   38 1
  26   11   39 1
  27   11   40 1
  28   12   13 ar
  29   12   41 1
  30   13   14 ar
  31   13   42 1
  32   14   15 ar
  33   14   16 1
  34   15   43 1
  35   16   17 2
  36   16   18 1
  37   17   24 1
  38   17   21 1
  39   18   19 2
  40   18   44 1
  41   19   20 1
  42   19   45 1
  43   20   21 am
  44   20   22 1
  45   21   25 2
  46   22   23 1
  47   22   46 1
  48   22   47 1
  49   23   27 1
  50   23   28 1
  51   23   48 1
  52   26   49 1
  53   27   28 1
  54   27   50 1
  55   27   51 1
  56   28   52 1
  57   28   53 1

#	End of record

