#	Name: ASD01881626
#	Creating user name:	WinNT
#	Creation time:	15. 06. 2019 19:43

#	Modifying user name:	WinNT
#	Modification time:	15. 06. 2019 19:43

#	Program:	/corina/corina34_cracker 3.40 0067  02.08.2006

@<TRIPOS>MOLECULE
ASD01881626
  46   48    0    0    0
SMALL
NO_CHARGES


@<TRIPOS>ATOM
   1 N1            -0.0154     1.2844     0.0126 N.pl3   
   2 N2             0.0018    -0.0035    -0.0055 N.2     
   3 N3             1.2029    -0.4643    -0.0256 N.2     
   4 C4             2.0739     0.5649    -0.0212 C.ar    
   5 C5             1.2843     1.7302     0.0040 C.ar    
   6 C6             3.4668     0.6762    -0.0352 C.ar    
   7 C7             4.0484     1.9286    -0.0240 C.ar    
   8 C8             3.2562     3.0740     0.0010 C.ar    
   9 C9             1.8926     2.9786     0.0141 C.ar    
  10 O10            5.4033     2.0444    -0.0370 O.3     
  11 C11            5.9405     3.3642    -0.1452 C.3     
  12 C12            6.0180     3.9988     1.2449 C.3     
  13 C13            7.3217     3.2967    -0.7442 C.ar    
  14 C14            7.7587     4.3002    -1.5886 C.ar    
  15 C15            9.0256     4.2383    -2.1381 C.ar    
  16 C16            9.8557     3.1731    -1.8429 C.ar    
  17 C17            9.4191     2.1700    -0.9978 C.ar    
  18 C18            8.1538     2.2342    -0.4449 C.ar    
  19 C19           -1.2132     2.1278     0.0325 C.3     
  20 C20           -1.6200     2.4017     1.4818 C.3     
  21 C21           -0.4786     3.1196     2.2049 C.3     
  22 C22           -2.8708     3.2825     1.5027 C.3     
  23 C23           -1.9172     1.0770     2.1872 C.3     
  24 Br24           4.5467    -0.8758    -0.0685 Br      
  25 H25            3.7240     4.0474     0.0099 H       
  26 H26            1.2886     3.8737     0.0332 H       
  27 H27            5.2962     3.9675    -0.7846 H       
  28 H28            6.6623     3.3955     1.8843 H       
  29 H29            6.4278     5.0054     1.1623 H       
  30 H30            5.0190     4.0476     1.6781 H       
  31 H31            7.1101     5.1324    -1.8192 H       
  32 H32            9.3667     5.0219    -2.7984 H       
  33 H33           10.8453     3.1243    -2.2728 H       
  34 H34           10.0676     1.3377    -0.7675 H       
  35 H35            7.8140     1.4524     0.2183 H       
  36 H36           -1.0014     3.0716    -0.4700 H       
  37 H37           -2.0263     1.6164    -0.4826 H       
  38 H38           -0.2668     4.0634     1.7024 H       
  39 H39           -0.7684     3.3148     3.2374 H       
  40 H40            0.4125     2.4922     2.1901 H       
  41 H41           -3.6839     2.7711     0.9875 H       
  42 H42           -3.1606     3.4777     2.5351 H       
  43 H43           -2.6591     4.2263     1.0001 H       
  44 H44           -1.0261     0.4495     2.1723 H       
  45 H45           -2.2070     1.2721     3.2197 H       
  46 H46           -2.7303     0.5655     1.6721 H       
@<TRIPOS>BOND
   1    1    2 1
   2    1    5 1
   3    1   19 1
   4    2    3 2
   5    3    4 1
   6    4    5 ar
   7    4    6 ar
   8    5    9 ar
   9    6    7 ar
  10    6   24 1
  11    7    8 ar
  12    7   10 1
  13    8    9 ar
  14    8   25 1
  15    9   26 1
  16   10   11 1
  17   11   12 1
  18   11   13 1
  19   11   27 1
  20   12   28 1
  21   12   29 1
  22   12   30 1
  23   13   14 ar
  24   13   18 ar
  25   14   15 ar
  26   14   31 1
  27   15   16 ar
  28   15   32 1
  29   16   17 ar
  30   16   33 1
  31   17   18 ar
  32   17   34 1
  33   18   35 1
  34   19   20 1
  35   19   36 1
  36   19   37 1
  37   20   21 1
  38   20   22 1
  39   20   23 1
  40   21   38 1
  41   21   39 1
  42   21   40 1
  43   22   41 1
  44   22   42 1
  45   22   43 1
  46   23   44 1
  47   23   45 1
  48   23   46 1

#	End of record

