#	Name: ASD01913341
#	Creating user name:	WinNT
#	Creation time:	15. 06. 2019 20:01

#	Modifying user name:	WinNT
#	Modification time:	15. 06. 2019 20:01

#	Program:	/corina/corina34_cracker 3.40 0067  02.08.2006

@<TRIPOS>MOLECULE
ASD01913341
  37   39    0    0    0
SMALL
NO_CHARGES


@<TRIPOS>ATOM
   1 C1            -0.0166     1.3765     0.0096 C.2     
   2 C2             0.0021    -0.0041     0.0020 C.2     
   3 C3             1.2499    -0.6727    -0.0135 C.2     
   4 N4             2.3635     0.0159    -0.0200 N.2     
   5 C5             2.3514     1.3566    -0.0127 C.2     
   6 N6             1.1685     2.0507     0.0019 N.pl3   
   7 C7             3.3712     2.2994    -0.0169 C.2     
   8 C8             2.7831     3.5557    -0.0048 C.2     
   9 N9             1.4768     3.4160     0.0065 N.2     
  10 C10            3.5231     4.8685    -0.0035 C.3     
  11 C11            4.0870     5.1375    -1.4002 C.3     
  12 C12            2.5629     5.9948     0.3844 C.3     
  13 C13            4.6707     4.8061     1.0065 C.3     
  14 C14           -1.2215    -0.7480     0.0102 C.1     
  15 C15           -2.2246    -1.3579     0.0169 C.1     
  16 C16           -3.4482    -2.1018     0.0250 C.ar    
  17 C17           -3.4307    -3.4987     0.0174 C.ar    
  18 N18           -4.5563    -4.1821     0.0244 N.ar    
  19 C19           -5.7332    -3.5863     0.0392 C.ar    
  20 C20           -5.8363    -2.2065     0.0476 C.ar    
  21 C21           -4.6841    -1.4411     0.0467 C.ar    
  22 H22           -0.9539     1.9131     0.0170 H       
  23 H23            1.2833    -1.7522    -0.0196 H       
  24 H24            4.4310     2.0918    -0.0273 H       
  25 H25            3.2694     5.1819    -2.1197 H       
  26 H26            4.6222     6.0870    -1.3992 H       
  27 H27            4.7710     4.3351    -1.6765 H       
  28 H28            2.1612     5.8032     1.3794 H       
  29 H29            3.0982     6.9443     0.3853 H       
  30 H30            1.7454     6.0392    -0.3351 H       
  31 H31            5.3547     4.0038     0.7301 H       
  32 H32            5.2059     5.7557     1.0074 H       
  33 H33            4.2690     4.6145     2.0015 H       
  34 H34           -2.4862    -4.0225     0.0052 H       
  35 H35           -6.6316    -4.1858     0.0445 H       
  36 H36           -6.8064    -1.7320     0.0594 H       
  37 H37           -4.7356    -0.3624     0.0531 H       
@<TRIPOS>BOND
   1    1    2 2
   2    1    6 1
   3    1   22 1
   4    2    3 1
   5    2   14 1
   6    3    4 2
   7    3   23 1
   8    4    5 1
   9    5    6 1
  10    5    7 2
  11    6    9 1
  12    7    8 1
  13    7   24 1
  14    8    9 2
  15    8   10 1
  16   10   11 1
  17   10   12 1
  18   10   13 1
  19   11   25 1
  20   11   26 1
  21   11   27 1
  22   12   28 1
  23   12   29 1
  24   12   30 1
  25   13   31 1
  26   13   32 1
  27   13   33 1
  28   14   15 3
  29   15   16 1
  30   16   17 ar
  31   16   21 ar
  32   17   18 ar
  33   17   34 1
  34   18   19 ar
  35   19   20 ar
  36   19   35 1
  37   20   21 ar
  38   20   36 1
  39   21   37 1

#	End of record

