#	Name: ASD01910278
#	Creating user name:	WinNT
#	Creation time:	15. 06. 2019 19:55

#	Modifying user name:	WinNT
#	Modification time:	15. 06. 2019 19:55

#	Program:	/corina/corina34_cracker 3.40 0067  02.08.2006

@<TRIPOS>MOLECULE
ASD01910278
  44   47    0    0    0
SMALL
NO_CHARGES


@<TRIPOS>ATOM
   1 C1            -0.0198     1.4730    -0.0093 C.ar    
   2 C2             0.0021    -0.0041     0.0020 C.2     
   3 O3             1.0596    -0.5970    -0.0870 O.2     
   4 N4            -1.1504    -0.6943     0.1110 N.am    
   5 C5            -1.1597    -2.1589    -0.0049 C.3     
   6 C6            -1.8500    -2.7469     1.2298 C.3     
   7 C7            -3.2377    -2.1195     1.3807 C.3     
   8 C8            -3.0975    -0.6086     1.5794 C.3     
   9 C9            -2.4205     0.0032     0.3542 C.3     
  10 N10           -2.5677    -6.0733     0.2507 N.2     
  11 C11           -1.8599    -6.3401     1.3173 C.2     
  12 N12           -1.4806    -5.1571     1.8510 N.2     
  13 C13           -1.9874    -4.2387     1.0666 C.2     
  14 O14           -2.6495    -4.8733     0.0942 O.3     
  15 C15           -1.5344    -7.6891     1.8439 C.ar    
  16 C16           -1.9963    -8.8268     1.1857 C.ar    
  17 C17           -1.6903   -10.0788     1.6795 C.ar    
  18 C18           -0.9264   -10.2051     2.8257 C.ar    
  19 C19           -0.4652    -9.0789     3.4832 C.ar    
  20 C20           -0.7609    -7.8222     2.9951 C.ar    
  21 C21            0.9427     2.1935     0.7011 C.ar    
  22 C22            0.9177     3.5716     0.6872 C.ar    
  23 C23           -0.0610     4.2425    -0.0300 C.ar    
  24 C24           -1.0193     3.5320    -0.7367 C.ar    
  25 C25           -0.9995     2.1538    -0.7351 C.ar    
  26 F26           -0.0813     5.5933    -0.0400 F       
  27 H27           -1.7051    -2.4510    -0.9023 H       
  28 H28           -0.1354    -2.5275    -0.0611 H       
  29 H29           -1.2546    -2.5308     2.1170 H       
  30 H30           -3.8241    -2.3149     0.4829 H       
  31 H31           -3.7408    -2.5542     2.2445 H       
  32 H32           -4.0848    -0.1656     1.7101 H       
  33 H33           -2.4904    -0.4126     2.4632 H       
  34 H34           -2.2294     1.0614     0.5326 H       
  35 H35           -3.0668    -0.1119    -0.5160 H       
  36 H36           -2.5931    -8.7293     0.2908 H       
  37 H37           -2.0481   -10.9614     1.1703 H       
  38 H38           -0.6895   -11.1867     3.2090 H       
  39 H39            0.1305    -9.1832     4.3780 H       
  40 H40           -0.4003    -6.9435     3.5092 H       
  41 H41            1.7051     1.6719     1.2607 H       
  42 H42            1.6616     4.1298     1.2363 H       
  43 H43           -1.7797     4.0595    -1.2935 H       
  44 H44           -1.7464     1.6013    -1.2859 H       
@<TRIPOS>BOND
   1    1    2 1
   2    1   21 ar
   3    1   25 ar
   4    2    3 2
   5    2    4 am
   6    4    5 1
   7    4    9 1
   8    5    6 1
   9    5   27 1
  10    5   28 1
  11    6    7 1
  12    6   13 1
  13    6   29 1
  14    7    8 1
  15    7   30 1
  16    7   31 1
  17    8    9 1
  18    8   32 1
  19    8   33 1
  20    9   34 1
  21    9   35 1
  22   10   11 2
  23   10   14 1
  24   11   12 1
  25   11   15 1
  26   12   13 2
  27   13   14 1
  28   15   16 ar
  29   15   20 ar
  30   16   17 ar
  31   16   36 1
  32   17   18 ar
  33   17   37 1
  34   18   19 ar
  35   18   38 1
  36   19   20 ar
  37   19   39 1
  38   20   40 1
  39   21   22 ar
  40   21   41 1
  41   22   23 ar
  42   22   42 1
  43   23   24 ar
  44   23   26 1
  45   24   25 ar
  46   24   43 1
  47   25   44 1

#	End of record

