#	Name: ASD01915067
#	Creating user name:	WinNT
#	Creation time:	15. 06. 2019 20:04

#	Modifying user name:	WinNT
#	Modification time:	15. 06. 2019 20:04

#	Program:	/corina/corina34_cracker 3.40 0067  02.08.2006

@<TRIPOS>MOLECULE
ASD01915067
  39   42    0    0    0
SMALL
NO_CHARGES


@<TRIPOS>ATOM
   1 C1             0.0645     0.5901    -0.0125 C.ar    
   2 C2             0.3904    -0.7469     0.2244 C.ar    
   3 N3            -0.5731    -1.6492     0.4220 N.ar    
   4 C4            -1.8462    -1.3310     0.4038 C.ar    
   5 C5            -2.2530    -0.0193     0.1738 C.ar    
   6 C6            -1.2970     0.9589    -0.0317 C.ar    
   7 C7             1.2517     1.4180    -0.2035 C.2     
   8 C8             2.4034     0.7565    -0.1179 C.2     
   9 S9             2.1391    -0.9454     0.2053 S.3     
  10 C10            1.1802     2.8742    -0.4710 C.ar    
  11 C11            1.4788     3.7933     0.5325 C.ar    
  12 S12            3.9910     1.4973    -0.3061 S.o2    
  13 O13            3.8542     2.8499     0.1074 O.2     
  14 O14            4.9250     0.5976     0.2748 O.2     
  15 C15            4.3463     1.5380    -2.0315 C.ar    
  16 C16            4.0938     2.6858    -2.7606 C.ar    
  17 C17            4.8809     0.4267    -2.6502 C.ar    
  18 C18            5.1628     0.4594    -4.0172 C.ar    
  19 C19            4.9014     1.6185    -4.7504 C.ar    
  20 C20            4.3708     2.7264    -4.1181 C.ar    
  21 N21            1.4158     5.0885     0.2968 N.ar    
  22 C22            1.0715     5.5652    -0.8855 C.ar    
  23 C23            0.7594     4.7144    -1.9348 C.ar    
  24 C24            0.8175     3.3470    -1.7368 C.ar    
  25 N25           -3.6145     0.3068     0.1560 N.pl3   
  26 F26            4.1168     3.8494    -4.8250 F       
  27 F27            1.0222     6.9018    -1.0755 F       
  28 C28            5.7182    -0.6909    -4.6645 C.1     
  29 N29            6.1588    -1.6034    -5.1781 N.1     
  30 H30           -2.5889    -2.0975     0.5692 H       
  31 H31           -1.5873     1.9835    -0.2117 H       
  32 H32            1.7641     3.4412     1.5128 H       
  33 H33            3.6788     3.5539    -2.2703 H       
  34 H34            5.0814    -0.4670    -2.0779 H       
  35 H35            5.1171     1.6503    -5.8082 H       
  36 H36            0.4783     5.1151    -2.8975 H       
  37 H37            0.5799     2.6613    -2.5366 H       
  38 H38           -4.2803    -0.3828     0.3044 H       
  39 H39           -3.8919     1.2223    -0.0048 H       
@<TRIPOS>BOND
   1    1    2 ar
   2    1    7 1
   3    1    6 ar
   4    2    3 ar
   5    2    9 1
   6    3    4 ar
   7    4    5 ar
   8    4   30 1
   9    5    6 ar
  10    5   25 1
  11    6   31 1
  12    7    8 2
  13    7   10 1
  14    8    9 1
  15    8   12 1
  16   10   11 ar
  17   10   24 ar
  18   11   21 ar
  19   11   32 1
  20   12   13 2
  21   12   14 2
  22   12   15 1
  23   15   16 ar
  24   15   17 ar
  25   16   20 ar
  26   16   33 1
  27   17   18 ar
  28   17   34 1
  29   18   19 ar
  30   18   28 1
  31   19   20 ar
  32   19   35 1
  33   20   26 1
  34   21   22 ar
  35   22   23 ar
  36   22   27 1
  37   23   24 ar
  38   23   36 1
  39   24   37 1
  40   25   38 1
  41   25   39 1
  42   28   29 3

#	End of record

