#	Name: ASD01884973
#	Creating user name:	WinNT
#	Creation time:	15. 06. 2019 19:49

#	Modifying user name:	WinNT
#	Modification time:	15. 06. 2019 19:49

#	Program:	/corina/corina34_cracker 3.40 0067  02.08.2006

@<TRIPOS>MOLECULE
ASD01884973
  52   56    0    0    0
SMALL
NO_CHARGES


@<TRIPOS>ATOM
   1 C1            -0.0166     1.3738     0.0096 C.ar    
   2 C2             0.0021    -0.0041     0.0020 C.ar    
   3 C3             1.2203    -0.6840    -0.0132 C.ar    
   4 C4             2.4169     0.0335    -0.0208 C.ar    
   5 C5             2.3929     1.4113    -0.0132 C.ar    
   6 C6             1.1774     2.0866     0.0020 C.ar    
   7 C7             1.2433    -2.1650    -0.0209 C.2     
   8 C8             1.7479    -2.8497    -1.1108 C.2     
   9 C9             0.7540    -2.8936     1.0907 C.2     
  10 C10            0.7763    -4.2395     1.0818 C.2     
  11 N11            1.2679    -4.9238     0.0076 N.pl3   
  12 C12            1.7567    -4.2546    -1.0884 C.2     
  13 C13            1.4114    -6.2490    -0.2719 C.2     
  14 N14            1.9469    -6.3451    -1.4613 N.2     
  15 N15            2.1560    -5.1747    -1.9532 N.2     
  16 C16            1.0243    -7.3958     0.6259 C.3     
  17 C17            1.0851    -8.8063     0.0363 C.3     
  18 C18            2.1315    -8.3589     1.0590 C.3     
  19 N19            1.1557     3.4814     0.0102 N.pl3   
  20 C20           -0.1241     4.1941     0.0262 C.3     
  21 C21            0.1282     5.6798     0.0323 C.ar    
  22 C22            0.2345     6.3781    -1.1623 C.ar    
  23 C23            0.2506     6.3620     1.2267 C.ar    
  24 N24            0.4711     7.6626     1.2431 N.ar    
  25 C25            0.5838     8.3616     0.1257 C.ar    
  26 C26            0.4666     7.7418    -1.1115 C.ar    
  27 O27            0.8107     9.6978     0.1890 O.3     
  28 C28            0.9156    10.2770     1.4911 C.3     
  29 C29            2.2799    -2.1005    -2.3052 C.3     
  30 F30            3.6656    -1.9518    -2.1830 F       
  31 F31            1.9888    -2.8156    -3.4719 F       
  32 F32            1.6794    -0.8386    -2.3696 F       
  33 H33           -0.9594     1.9006     0.0169 H       
  34 H34           -0.9255    -0.5572     0.0082 H       
  35 H35            3.3612    -0.4905    -0.0322 H       
  36 H36            3.3189     1.9672    -0.0190 H       
  37 H37            0.3620    -2.3676     1.9486 H       
  38 H38            0.4008    -4.7847     1.9352 H       
  39 H39            0.2322    -7.1839     1.3441 H       
  40 H40            0.3328    -9.5227     0.3665 H       
  41 H41            1.4051    -8.9048    -1.0010 H       
  42 H42            3.1399    -8.1630     0.6944 H       
  43 H43            2.0676    -8.7809     2.0619 H       
  44 H44            1.9881     3.9794     0.0053 H       
  45 H45           -0.6998     3.9270    -0.8600 H       
  46 H46           -0.6832     3.9168     0.9199 H       
  47 H47            0.1386     5.8691    -2.1100 H       
  48 H48            0.1642     5.8240     2.1592 H       
  49 H49            0.5592     8.3154    -2.0219 H       
  50 H50           -0.0123    10.1112     2.0384 H       
  51 H51            1.7426     9.8137     2.0293 H       
  52 H52            1.0967    11.3479     1.3989 H       
@<TRIPOS>BOND
   1    1    2 ar
   2    1    6 ar
   3    1   33 1
   4    2    3 ar
   5    2   34 1
   6    3    4 ar
   7    3    7 1
   8    4    5 ar
   9    4   35 1
  10    5    6 ar
  11    5   36 1
  12    6   19 1
  13    7    8 2
  14    7    9 1
  15    8   29 1
  16    8   12 1
  17    9   10 2
  18    9   37 1
  19   10   11 1
  20   10   38 1
  21   11   12 1
  22   11   13 1
  23   12   15 2
  24   13   14 2
  25   13   16 1
  26   14   15 1
  27   16   18 1
  28   16   17 1
  29   16   39 1
  30   17   18 1
  31   17   40 1
  32   17   41 1
  33   18   42 1
  34   18   43 1
  35   19   20 1
  36   19   44 1
  37   20   21 1
  38   20   45 1
  39   20   46 1
  40   21   22 ar
  41   21   23 ar
  42   22   26 ar
  43   22   47 1
  44   23   24 ar
  45   23   48 1
  46   24   25 ar
  47   25   26 ar
  48   25   27 1
  49   26   49 1
  50   27   28 1
  51   28   50 1
  52   28   51 1
  53   28   52 1
  54   29   30 1
  55   29   31 1
  56   29   32 1

#	End of record

