#	Name: ASD01410191
#	Creating user name:	WinNT
#	Creation time:	15. 06. 2019 19:16

#	Modifying user name:	WinNT
#	Modification time:	15. 06. 2019 19:16

#	Program:	/corina/corina34_cracker 3.40 0067  02.08.2006

@<TRIPOS>MOLECULE
ASD01410191
  38   41    0    0    0
SMALL
NO_CHARGES


@<TRIPOS>ATOM
   1 C1            -0.0045     1.4206    -0.0006 C.ar    
   2 C2             0.0136     0.0452     0.2988 C.ar    
   3 C3            -1.1636    -0.6106     0.6408 C.ar    
   4 C4            -2.3424     0.0753     0.6875 C.ar    
   5 C5            -2.3796     1.4450     0.3925 C.ar    
   6 C6            -1.2102     2.1198     0.0530 C.ar    
   7 N7             1.2696     1.7838    -0.2941 N.2     
   8 C8             2.0567     0.7399    -0.1965 C.2     
   9 N9             1.3257    -0.3596     0.1679 N.pl3   
  10 C10           -3.6608     2.1747     0.4463 C.2     
  11 O11           -3.6949     3.3620     0.1909 O.2     
  12 O12           -4.7931     1.5243     0.7786 O.3     
  13 C13            5.6127     0.0795    -0.8824 C.2     
  14 O14            5.5847     1.4099    -0.7096 O.3     
  15 C15            4.3408     1.8297    -0.4459 C.2     
  16 C16            3.5135     0.7483    -0.4425 C.2     
  17 C17            4.3708    -0.4085    -0.7338 C.2     
  18 C18            1.3251    -2.2953     1.7192 C.3     
  19 C19            1.4077    -3.8235     1.5256 C.3     
  20 C20            1.3640    -4.0774     0.0085 C.3     
  21 C21            1.2563    -2.6946    -0.6668 C.3     
  22 C22            1.8419    -1.7142     0.3797 C.3     
  23 H23           -1.1451    -1.6659     0.8697 H       
  24 H24           -3.2531    -0.4409     0.9532 H       
  25 H25           -1.2376     3.1752    -0.1744 H       
  26 H26           -5.6079     2.0445     0.8004 H       
  27 H27            6.4924    -0.5045    -1.1094 H       
  28 H28            4.0441     2.8525    -0.2664 H       
  29 H29            4.0644    -1.4411    -0.8128 H       
  30 H30            0.2942    -1.9883     1.8957 H       
  31 H31            1.9645    -1.9801     2.5437 H       
  32 H32            2.3415    -4.2025     1.9408 H       
  33 H33            0.5596    -4.3076     2.0097 H       
  34 H34            2.2766    -4.5796    -0.3125 H       
  35 H35            0.4946    -4.6847    -0.2435 H       
  36 H36            1.8455    -2.6708    -1.5835 H       
  37 H37            0.2143    -2.4521    -0.8755 H       
  38 H38            2.9314    -1.7203     0.3475 H       
@<TRIPOS>BOND
   1    1    2 ar
   2    1    7 1
   3    1    6 ar
   4    2    3 ar
   5    2    9 1
   6    3    4 ar
   7    3   23 1
   8    4    5 ar
   9    4   24 1
  10    5    6 ar
  11    5   10 1
  12    6   25 1
  13    7    8 2
  14    8    9 1
  15    8   16 1
  16    9   22 1
  17   10   11 2
  18   10   12 1
  19   12   26 1
  20   13   14 1
  21   13   17 2
  22   13   27 1
  23   14   15 1
  24   15   16 2
  25   15   28 1
  26   16   17 1
  27   17   29 1
  28   18   19 1
  29   18   22 1
  30   18   30 1
  31   18   31 1
  32   19   20 1
  33   19   32 1
  34   19   33 1
  35   20   21 1
  36   20   34 1
  37   20   35 1
  38   21   22 1
  39   21   36 1
  40   21   37 1
  41   22   38 1

#	End of record

