#	Name: ASD01411180
#	Creating user name:	WinNT
#	Creation time:	15. 06. 2019 19:19

#	Modifying user name:	WinNT
#	Modification time:	15. 06. 2019 19:19

#	Program:	/corina/corina34_cracker 3.40 0067  02.08.2006

@<TRIPOS>MOLECULE
ASD01411180
  74   77    0    0    0
SMALL
NO_CHARGES


@<TRIPOS>ATOM
   1 C1             1.3375     0.9070    -1.0557 C.ar    
   2 C2             1.2894    -0.4396    -0.7949 C.ar    
   3 C3             2.4539    -1.2024    -0.7345 C.ar    
   4 C4             3.6807    -0.5847    -0.9356 C.ar    
   5 C5             3.7354     0.7706    -1.1961 C.ar    
   6 C6             2.5695     1.5221    -1.2590 C.ar    
   7 P7            -0.2889    -1.2965    -0.5100 P.3     
   8 N8             0.0776    -2.7785     0.1091 N.2     
   9 C9             1.2992    -3.2137     0.0594 C.2     
  10 N10            2.3703    -2.5700    -0.4806 N.pl3   
  11 C11            1.5533    -4.5417     0.6490 C.2     
  12 C12            0.6154    -5.3372     1.2346 C.2     
  13 C13            1.3345    -6.5852     1.6862 C.3     
  14 N14            2.7380    -6.4102     1.3020 N.am    
  15 C15            2.8532    -5.2164     0.6915 C.2     
  16 C16            3.8219    -7.3678     1.5350 C.3     
  17 C17            4.8573    -6.7474     2.4751 C.3     
  18 C18            6.0223    -7.7210     2.6646 C.3     
  19 C19            6.6716    -8.0092     1.3095 C.3     
  20 C20            7.0577    -7.1005     3.6047 C.3     
  21 C21            5.5024    -9.0269     3.2690 C.3     
  22 O22           -1.1110    -0.5342     0.4560 O.2     
  23 O23           -1.0835    -1.4624    -1.9004 O.3     
  24 O24           -0.6927    -5.0643     1.3819 O.3     
  25 O25            3.8884    -4.7614     0.2425 O.2     
  26 N26            2.6329     2.8942    -1.5264 N.am    
  27 S27            2.3825     3.9876    -0.3082 S.o2    
  28 O28            2.5161     5.2532    -0.9403 O.2     
  29 O29            1.1504     3.5864     0.2751 O.2     
  30 C30            3.7546     3.7036     0.8440 C.3     
  31 C31           -1.4890    -0.3514    -2.7025 C.3     
  32 C32           -2.2168    -0.8605    -3.9483 C.3     
  33 C33            1.4920    -9.0660     1.4415 C.3     
  34 C34            1.3576    -9.2188     2.9579 C.3     
  35 C35            1.9632    -7.9956     3.6495 C.3     
  36 C36            1.2180    -6.7362     3.2019 C.3     
  37 C37            0.7456    -7.8095     0.9876 C.3     
  38 H38            0.4261     1.4841    -1.1073 H       
  39 H39            4.5915    -1.1632    -0.8880 H       
  40 H40            4.6911     1.2488    -1.3522 H       
  41 H41            3.1427    -3.1106    -0.7088 H       
  42 H42            3.4162    -8.2727     1.9876 H       
  43 H43            4.2963    -7.6176     0.5860 H       
  44 H44            5.2277    -5.8171     2.0445 H       
  45 H45            4.3947    -6.5421     3.4405 H       
  46 H46            7.0420    -7.0789     0.8789 H       
  47 H47            7.5016    -8.7028     1.4445 H       
  48 H48            5.9340    -8.4512     0.6398 H       
  49 H49            6.5951    -6.8952     4.5701 H       
  50 H50            7.8876    -7.7942     3.7397 H       
  51 H51            7.4281    -6.1702     3.1741 H       
  52 H52            4.7647    -9.4689     2.5993 H       
  53 H53            6.3323    -9.7205     3.4040 H       
  54 H54            5.0397    -8.8216     4.2344 H       
  55 H55           -1.0059    -4.2167     1.0377 H       
  56 H56            2.8234     3.2048    -2.4253 H       
  57 H57            4.6965     3.9547     0.3563 H       
  58 H58            3.6238     4.3303     1.7262 H       
  59 H59            3.7678     2.6552     1.1418 H       
  60 H60           -2.1583     0.2875    -2.1263 H       
  61 H61           -0.6105     0.2197    -3.0028 H       
  62 H62           -3.0953    -1.4316    -3.6480 H       
  63 H63           -2.5261    -0.0130    -4.5601 H       
  64 H64           -1.5475    -1.4994    -4.5244 H       
  65 H65            2.5458    -8.9781     1.1772 H       
  66 H66            1.0655    -9.9399     0.9490 H       
  67 H67            0.3034    -9.3010     3.2227 H       
  68 H68            1.8844   -10.1167     3.2808 H       
  69 H69            1.8724    -8.1070     4.7300 H       
  70 H70            3.0159    -7.9100     3.3802 H       
  71 H71            1.6545    -5.8638     3.6884 H       
  72 H72            0.1670    -6.8183     3.4790 H       
  73 H73           -0.3097    -7.9015     1.2443 H       
  74 H74            0.8482    -7.6962    -0.0916 H       
@<TRIPOS>BOND
   1    1    2 ar
   2    1    6 ar
   3    1   38 1
   4    2    3 ar
   5    2    7 1
   6    3    4 ar
   7    3   10 1
   8    4    5 ar
   9    4   39 1
  10    5    6 ar
  11    5   40 1
  12    6   26 1
  13    7    8 1
  14    7   22 2
  15    7   23 1
  16    8    9 2
  17    9   10 1
  18    9   11 1
  19   10   41 1
  20   11   12 2
  21   11   15 1
  22   12   13 1
  23   12   24 1
  24   13   14 1
  25   13   37 1
  26   13   36 1
  27   14   15 am
  28   14   16 1
  29   15   25 2
  30   16   17 1
  31   16   42 1
  32   16   43 1
  33   17   18 1
  34   17   44 1
  35   17   45 1
  36   18   19 1
  37   18   20 1
  38   18   21 1
  39   19   46 1
  40   19   47 1
  41   19   48 1
  42   20   49 1
  43   20   50 1
  44   20   51 1
  45   21   52 1
  46   21   53 1
  47   21   54 1
  48   23   31 1
  49   24   55 1
  50   26   27 am
  51   26   56 1
  52   27   28 2
  53   27   29 2
  54   27   30 1
  55   30   57 1
  56   30   58 1
  57   30   59 1
  58   31   32 1
  59   31   60 1
  60   31   61 1
  61   32   62 1
  62   32   63 1
  63   32   64 1
  64   33   34 1
  65   33   37 1
  66   33   65 1
  67   33   66 1
  68   34   35 1
  69   34   67 1
  70   34   68 1
  71   35   36 1
  72   35   69 1
  73   35   70 1
  74   36   71 1
  75   36   72 1
  76   37   73 1
  77   37   74 1

#	End of record

