#	Name: ASD01180216
#	Creating user name:	WinNT
#	Creation time:	15. 06. 2019 19:07

#	Modifying user name:	WinNT
#	Modification time:	15. 06. 2019 19:07

#	Program:	/corina/corina34_cracker 3.40 0067  02.08.2006

@<TRIPOS>MOLECULE
ASD01180216
  63   65    0    0    0
SMALL
NO_CHARGES


@<TRIPOS>ATOM
   1 C1             0.9092     1.2214     0.3698 C.ar    
   2 C2             0.7848    -0.1517     0.3104 C.ar    
   3 C3             1.9246    -0.9487     0.2194 C.ar    
   4 C4             3.1843    -0.3532     0.1889 C.ar    
   5 C5             3.2967     1.0210     0.2490 C.ar    
   6 C6             2.1620     1.8070     0.3392 C.ar    
   7 C7             1.7974    -2.4250     0.1557 C.ar    
   8 C8             2.9440    -3.2125     0.0648 C.ar    
   9 C9             2.8136    -4.5875     0.0061 C.ar    
  10 C10            1.5319    -5.1353     0.0403 C.ar    
  11 C11            0.4341    -4.2877     0.1317 C.ar    
  12 N12            0.5940    -2.9821     0.1913 N.ar    
  13 N13            1.3533    -6.5188    -0.0171 N.pl3   
  14 C14            0.0089    -7.0893     0.0989 C.3     
  15 C15           -0.0204    -8.4443    -0.5598 C.ar    
  16 N16            0.7027    -9.4263    -0.0564 N.ar    
  17 C17            0.7128   -10.6287    -0.5935 C.ar    
  18 C18           -0.0512   -10.9056    -1.7276 C.ar    
  19 C19           -0.8293    -9.8836    -2.2850 C.ar    
  20 C20           -0.8095    -8.6398    -1.6793 C.ar    
  21 C21           -0.0390   -12.2552    -2.3310 C.2     
  22 N22            0.7144   -13.2305    -1.7854 N.am    
  23 O23           -0.7085   -12.4853    -3.3191 O.2     
  24 C24            2.2913     3.3070     0.4049 C.3     
  25 F25            2.2702     3.8341    -0.8909 F       
  26 F26            1.2250     3.8352     1.1405 F       
  27 F27            3.4987     3.6443     1.0259 F       
  28 C28           -0.3584    -7.2328     1.5772 C.3     
  29 C29           -1.7945    -7.7464     1.6984 C.3     
  30 C30           -2.1161    -8.0195     3.1691 C.3     
  31 C31           -2.7606    -6.6933     1.1521 C.3     
  32 C32            0.7265   -14.5679    -2.3833 C.3     
  33 C33            1.6549   -15.4785    -1.5773 C.3     
  34 C34            1.6673   -16.8542    -2.1923 C.2     
  35 O35            1.0018   -17.0829    -3.1745 O.2     
  36 O36            2.4177   -17.8256    -1.6489 O.3     
  37 H37            0.0265     1.8402     0.4358 H       
  38 H38           -0.1938    -0.6079     0.3347 H       
  39 H39            4.0709    -0.9660     0.1189 H       
  40 H40            4.2723     1.4835     0.2254 H       
  41 H41            3.9216    -2.7543     0.0403 H       
  42 H42            3.6843    -5.2226    -0.0650 H       
  43 H43           -0.5616    -4.7052     0.1587 H       
  44 H44            2.1193    -7.1023    -0.1337 H       
  45 H45           -0.7085    -6.4313    -0.3915 H       
  46 H46            1.3179   -11.4070    -0.1525 H       
  47 H47           -1.4327   -10.0627    -3.1627 H       
  48 H48           -1.3971    -7.8277    -2.0813 H       
  49 H49            1.2487   -13.0469    -0.9969 H       
  50 H50            0.3215    -7.9391     2.0536 H       
  51 H51           -0.2769    -6.2628     2.0677 H       
  52 H52           -1.9003    -8.6681     1.1262 H       
  53 H53           -2.0104    -7.0978     3.7413 H       
  54 H54           -3.1392    -8.3854     3.2554 H       
  55 H55           -1.4279    -8.7698     3.5583 H       
  56 H56           -2.5813    -5.7416     1.6523 H       
  57 H57           -2.6019    -6.5760     0.0801 H       
  58 H58           -3.7868    -7.0121     1.3347 H       
  59 H59           -0.2830   -14.9789    -2.3745 H       
  60 H60            1.0834   -14.5032    -3.4111 H       
  61 H61            2.6644   -15.0675    -1.5861 H       
  62 H62            1.2980   -15.5432    -0.5494 H       
  63 H63            2.3932   -18.6915    -2.0786 H       
@<TRIPOS>BOND
   1    1    2 ar
   2    1    6 ar
   3    1   37 1
   4    2    3 ar
   5    2   38 1
   6    3    4 ar
   7    3    7 1
   8    4    5 ar
   9    4   39 1
  10    5    6 ar
  11    5   40 1
  12    6   24 1
  13    7    8 ar
  14    7   12 ar
  15    8    9 ar
  16    8   41 1
  17    9   10 ar
  18    9   42 1
  19   10   11 ar
  20   10   13 1
  21   11   12 ar
  22   11   43 1
  23   13   14 1
  24   13   44 1
  25   14   15 1
  26   14   28 1
  27   14   45 1
  28   15   16 ar
  29   15   20 ar
  30   16   17 ar
  31   17   18 ar
  32   17   46 1
  33   18   19 ar
  34   18   21 1
  35   19   20 ar
  36   19   47 1
  37   20   48 1
  38   21   22 am
  39   21   23 2
  40   22   32 1
  41   22   49 1
  42   24   25 1
  43   24   26 1
  44   24   27 1
  45   28   29 1
  46   28   50 1
  47   28   51 1
  48   29   30 1
  49   29   31 1
  50   29   52 1
  51   30   53 1
  52   30   54 1
  53   30   55 1
  54   31   56 1
  55   31   57 1
  56   31   58 1
  57   32   33 1
  58   32   59 1
  59   32   60 1
  60   33   34 1
  61   33   61 1
  62   33   62 1
  63   34   35 2
  64   34   36 1
  65   36   63 1

#	End of record

