#	Name: ASD01150908
#	Creating user name:	WinNT
#	Creation time:	15. 06. 2019 19:05

#	Modifying user name:	WinNT
#	Modification time:	15. 06. 2019 19:05

#	Program:	/corina/corina34_cracker 3.40 0067  02.08.2006

@<TRIPOS>MOLECULE
ASD01150908
  57   61    0    0    0
SMALL
NO_CHARGES


@<TRIPOS>ATOM
   1 C1            -0.0067     1.3920     0.0247 C.ar    
   2 C2             0.0081    -0.0006     0.0114 C.ar    
   3 C3             1.2175    -0.6777    -0.0075 C.ar    
   4 C4             2.4127     0.0307    -0.0130 C.ar    
   5 C5             2.4028     1.4123     0.0001 C.ar    
   6 C6             1.2000     2.0992     0.0190 C.ar    
   7 C7            -1.2967     2.1220     0.0387 C.2     
   8 N8            -1.3084     3.4345     0.0513 N.2     
   9 N9            -2.4940     4.1722     0.0648 N.am    
  10 C10           -3.7003     3.5623     0.0661 C.2     
  11 C11           -3.7522     2.1111     0.0526 C.2     
  12 C12           -4.7743     1.0708     0.0495 C.2     
  13 N13           -4.1168    -0.0548     0.0353 N.2     
  14 O14           -2.9156     0.0960     0.0292 O.3     
  15 C15           -2.5530     1.3829     0.0326 C.2     
  16 O16           -4.7271     4.2193     0.0788 O.2     
  17 C17           -2.4292     5.6357     0.0784 C.3     
  18 C18           -1.6792     6.1014     1.3280 C.3     
  19 C19           -1.7040     6.1178    -1.1515 C.ar    
  20 C20           -6.2697     1.2570     0.0612 C.3     
  21 C21           -7.0624     0.6821    -1.1144 C.3     
  22 C22           -7.1352     0.0109     0.2586 C.3     
  23 O23            1.1925     3.4581     0.0315 O.3     
  24 C24            2.4621     4.1140     0.0247 C.3     
  25 N25            1.2347    -2.0787    -0.0204 N.am    
  26 C26            2.1944    -2.7346    -0.7026 C.2     
  27 C27            2.2853    -4.2365    -0.6193 C.3     
  28 O28            2.9848    -2.1160    -1.3836 O.2     
  29 C29           -0.5940     5.4343    -1.6116 C.ar    
  30 C30           -2.1525     7.2401    -1.8226 C.ar    
  31 C31           -1.4882     7.6825    -2.9510 C.ar    
  32 C32           -0.3740     7.0019    -3.4088 C.ar    
  33 C33            0.0713     5.8757    -2.7398 C.ar    
  34 Cl34           0.4609     7.5569    -4.8260 Cl      
  35 H35           -0.9206    -0.5518     0.0161 H       
  36 H36            3.3529    -0.5005    -0.0274 H       
  37 H37            3.3349     1.9578    -0.0039 H       
  38 H38           -3.4397     6.0441     0.0879 H       
  39 H39           -2.2037     5.7527     2.2176 H       
  40 H40           -0.6686     5.6930     1.3186 H       
  41 H41           -1.6309     7.1903     1.3381 H       
  42 H42           -6.6238     2.1906     0.4984 H       
  43 H43           -7.9382     1.2372    -1.4503 H       
  44 H44           -6.5023     0.1691    -1.8962 H       
  45 H45           -6.6231    -0.9436     0.3800 H       
  46 H46           -8.0590     0.1245     0.8259 H       
  47 H47            3.0297     3.8162     0.9063 H       
  48 H48            3.0117     3.8324    -0.8735 H       
  49 H49            2.3133     5.1938     0.0360 H       
  50 H50            0.5559    -2.5766     0.4616 H       
  51 H51            1.6768    -4.6816    -1.4064 H       
  52 H52            3.3233    -4.5452    -0.7441 H       
  53 H53            1.9218    -4.5692     0.3530 H       
  54 H54           -0.2462     4.5554    -1.0890 H       
  55 H55           -3.0225     7.7711    -1.4653 H       
  56 H56           -1.8389     8.5591    -3.4754 H       
  57 H57            0.9387     5.3419    -3.0989 H       
@<TRIPOS>BOND
   1    1    2 ar
   2    1    6 ar
   3    1    7 1
   4    2    3 ar
   5    2   35 1
   6    3    4 ar
   7    3   25 1
   8    4    5 ar
   9    4   36 1
  10    5    6 ar
  11    5   37 1
  12    6   23 1
  13    7    8 2
  14    7   15 1
  15    8    9 1
  16    9   10 am
  17    9   17 1
  18   10   11 1
  19   10   16 2
  20   11   12 1
  21   11   15 2
  22   12   13 2
  23   12   20 1
  24   13   14 1
  25   14   15 1
  26   17   18 1
  27   17   19 1
  28   17   38 1
  29   18   39 1
  30   18   40 1
  31   18   41 1
  32   19   30 ar
  33   19   29 ar
  34   20   21 1
  35   20   22 1
  36   20   42 1
  37   21   22 1
  38   21   43 1
  39   21   44 1
  40   22   45 1
  41   22   46 1
  42   23   24 1
  43   24   47 1
  44   24   48 1
  45   24   49 1
  46   25   26 am
  47   25   50 1
  48   26   27 1
  49   26   28 2
  50   27   51 1
  51   27   52 1
  52   27   53 1
  53   29   33 ar
  54   29   54 1
  55   30   31 ar
  56   30   55 1
  57   31   32 ar
  58   31   56 1
  59   32   33 ar
  60   32   34 1
  61   33   57 1

#	End of record

