#	Name: ASD01810563
#	Creating user name:	WinNT
#	Creation time:	15. 06. 2019 19:24

#	Modifying user name:	WinNT
#	Modification time:	15. 06. 2019 19:24

#	Program:	/corina/corina34_cracker 3.40 0067  02.08.2006

@<TRIPOS>MOLECULE
ASD01810563
  50   55    0    0    0
SMALL
NO_CHARGES


@<TRIPOS>ATOM
   1 N1            -0.0153     1.2784     0.0091 N.pl3   
   2 N2             0.0021    -0.0041     0.0020 N.2     
   3 C3             1.0992    -0.7156    -0.0123 C.2     
   4 C4             2.4158    -0.0314    -0.0211 C.2     
   5 C5             2.3885     1.4420    -0.0134 C.ar    
   6 C6             3.5469     2.2117    -0.0201 C.ar    
   7 C7             3.4470     3.5907    -0.0119 C.ar    
   8 C8             2.2021     4.2000     0.0033 C.ar    
   9 C9             1.0467     3.4466     0.0101 C.ar    
  10 C10            1.1228     2.0588     0.0024 C.ar    
  11 N11            2.7674    -2.2286    -0.0356 N.am    
  12 N12            3.3341    -0.9517    -0.0344 N.2     
  13 C13            1.4196    -2.1447    -0.0225 C.2     
  14 O14            0.6281    -3.0727    -0.0195 O.2     
  15 C15           -1.3160     1.9525     0.0188 C.3     
  16 C16           -1.7686     2.1913    -1.3987 C.ar    
  17 C17           -2.5272     1.2368    -2.0509 C.ar    
  18 C18           -2.9434     1.4528    -3.3501 C.ar    
  19 C19           -2.5998     2.6301    -4.0009 C.ar    
  20 C20           -1.8385     3.5868    -3.3433 C.ar    
  21 C21           -1.4292     3.3671    -2.0425 C.ar    
  22 N22           -3.0204     2.8520    -5.3196 N.pl3   
  23 N23           -3.7888     1.9770    -6.0983 N.2     
  24 C24           -3.9786     2.5304    -7.2690 C.2     
  25 C25           -3.3382     3.7744    -7.2744 C.2     
  26 C26           -2.7613     3.9513    -6.0632 C.2     
  27 C27            3.4939    -3.4259    -0.0489 C.ar    
  28 C28            4.4367    -3.6584    -1.0452 C.ar    
  29 C29            5.1516    -4.8419    -1.0545 C.ar    
  30 C30            4.9294    -5.7929    -0.0751 C.ar    
  31 C31            3.9926    -5.5641     0.9156 C.ar    
  32 C32            3.2791    -4.3811     0.9351 C.ar    
  33 F33            4.6530    -2.7297    -2.0022 F       
  34 F34            4.7598     1.6168    -0.0341 F       
  35 H35            4.3420     4.1951    -0.0171 H       
  36 H36            2.1360     5.2780     0.0103 H       
  37 H37            0.0834     3.9348     0.0221 H       
  38 H38           -2.0457     1.3267     0.5326 H       
  39 H39           -1.2267     2.9070     0.5374 H       
  40 H40           -2.7941     0.3212    -1.5441 H       
  41 H41           -3.5353     0.7066    -3.8592 H       
  42 H42           -1.5696     4.5035    -3.8470 H       
  43 H43           -0.8401     4.1126    -1.5291 H       
  44 H44           -4.5335     2.1005    -8.0898 H       
  45 H45           -3.3126     4.4722    -8.0984 H       
  46 H46           -2.1938     4.8144    -5.7479 H       
  47 H47            5.8839    -5.0239    -1.8272 H       
  48 H48            5.4888    -6.7167    -0.0846 H       
  49 H49            3.8217    -6.3094     1.6783 H       
  50 H50            2.5514    -4.2016     1.7127 H       
@<TRIPOS>BOND
   1    1    2 1
   2    1   10 1
   3    1   15 1
   4    2    3 2
   5    3    4 1
   6    3   13 1
   7    4    5 1
   8    4   12 2
   9    5    6 ar
  10    5   10 ar
  11    6    7 ar
  12    6   34 1
  13    7    8 ar
  14    7   35 1
  15    8    9 ar
  16    8   36 1
  17    9   10 ar
  18    9   37 1
  19   11   12 1
  20   11   13 am
  21   11   27 1
  22   13   14 2
  23   15   16 1
  24   15   38 1
  25   15   39 1
  26   16   17 ar
  27   16   21 ar
  28   17   18 ar
  29   17   40 1
  30   18   19 ar
  31   18   41 1
  32   19   20 ar
  33   19   22 1
  34   20   21 ar
  35   20   42 1
  36   21   43 1
  37   22   23 1
  38   22   26 1
  39   23   24 2
  40   24   25 1
  41   24   44 1
  42   25   26 2
  43   25   45 1
  44   26   46 1
  45   27   28 ar
  46   27   32 ar
  47   28   29 ar
  48   28   33 1
  49   29   30 ar
  50   29   47 1
  51   30   31 ar
  52   30   48 1
  53   31   32 ar
  54   31   49 1
  55   32   50 1

#	End of record

