#	Name: ASD04591022
#	Creating user name:	WinNT
#	Creation time:	15. 06. 2019 20:51

#	Modifying user name:	WinNT
#	Modification time:	15. 06. 2019 20:51

#	Program:	/corina/corina34_cracker 3.40 0067  02.08.2006

@<TRIPOS>MOLECULE
ASD04591022
  59   64    0    0    0
SMALL
NO_CHARGES


@<TRIPOS>ATOM
   1 N1            -0.0171     1.3232    -0.0119 N.ar    
   2 C2             0.0017    -0.0035    -0.0052 C.ar    
   3 N3             1.1295    -0.6958    -0.0122 N.ar    
   4 C4             2.3048    -0.0740    -0.0266 C.ar    
   5 C5             2.3184     1.3349    -0.0341 C.ar    
   6 C6             1.1075     2.0201    -0.0262 C.ar    
   7 N7             3.6028    -0.5197    -0.0366 N.pl3   
   8 C8             4.4823     0.5521    -0.0506 C.ar    
   9 C9             3.7325     1.7405    -0.0497 C.ar    
  10 C10            5.8679     0.6218    -0.0645 C.ar    
  11 C11            6.4991     1.8645    -0.0774 C.ar    
  12 C12            5.7394     3.0407    -0.0758 C.ar    
  13 C13            4.3764     2.9778    -0.0622 C.ar    
  14 N14           -1.2022    -0.6883     0.0103 N.pl3   
  15 C15           -2.4018     0.0128     0.1313 C.ar    
  16 N16           -2.3777     1.3205     0.3319 N.ar    
  17 C17           -3.4875     2.0242     0.4522 C.ar    
  18 C18           -4.7284     1.4104     0.3721 C.ar    
  19 C19           -4.7934     0.0338     0.1614 C.ar    
  20 C20           -3.6096    -0.6696     0.0340 C.ar    
  21 N21           -5.9013     2.1636     0.5017 N.3     
  22 C22           -5.5937     3.5844     0.7169 C.3     
  23 C23           -6.8980     4.3831     0.7738 C.3     
  24 N24           -7.7428     3.8603     1.8567 N.3     
  25 C25           -8.0504     2.4395     1.6415 C.3     
  26 C26           -6.7460     1.6408     1.5846 C.3     
  27 C27            4.0027    -1.9290    -0.0323 C.3     
  28 C28            3.4629    -2.6262     1.2287 C.3     
  29 C29            2.5306    -3.7554     0.7431 C.3     
  30 C30            3.0229    -4.0631    -0.6929 C.3     
  31 C31            3.3797    -2.6588    -1.2402 C.3     
  32 C32            7.9291     1.9385    -0.0918 C.1     
  33 N33            9.0635     1.9973    -0.1032 N.1     
  34 H34            1.0860     3.0999    -0.0313 H       
  35 H35            6.4557    -0.2842    -0.0650 H       
  36 H36            6.2338     4.0008    -0.0851 H       
  37 H37            3.7949     3.8879    -0.0611 H       
  38 H38           -1.2110    -1.6555    -0.0630 H       
  39 H39           -3.4287     3.0902     0.6153 H       
  40 H40           -5.7460    -0.4708     0.0948 H       
  41 H41           -3.6228    -1.7369    -0.1303 H       
  42 H42           -5.0544     3.7014     1.6569 H       
  43 H43           -4.9780     3.9516    -0.1042 H       
  44 H44           -6.6736     5.4330     0.9622 H       
  45 H45           -7.4243     4.2882    -0.1760 H       
  46 H46           -7.3081     4.0040     2.7558 H       
  47 H47           -8.6661     2.0723     2.4626 H       
  48 H48           -8.5897     2.3224     0.7016 H       
  49 H49           -6.9704     0.5909     1.3962 H       
  50 H50           -6.2198     1.7357     2.5345 H       
  51 H51            5.0893    -2.0087    -0.0668 H       
  52 H52            4.2873    -3.0450     1.8058 H       
  53 H53            2.9033    -1.9160     1.8375 H       
  54 H54            2.6338    -4.6350     1.3785 H       
  55 H55            1.4954    -3.4148     0.7267 H       
  56 H56            3.9042    -4.7042    -0.6700 H       
  57 H57            2.2283    -4.5179    -1.2845 H       
  58 H58            2.4816    -2.1411    -1.5770 H       
  59 H59            4.1025    -2.7382    -2.0523 H       
@<TRIPOS>BOND
   1    1    2 ar
   2    1    6 ar
   3    2    3 ar
   4    2   14 1
   5    3    4 ar
   6    4    5 ar
   7    4    7 1
   8    5    6 ar
   9    5    9 1
  10    6   34 1
  11    7    8 1
  12    7   27 1
  13    8    9 ar
  14    8   10 ar
  15    9   13 ar
  16   10   11 ar
  17   10   35 1
  18   11   12 ar
  19   11   32 1
  20   12   13 ar
  21   12   36 1
  22   13   37 1
  23   14   15 1
  24   14   38 1
  25   15   16 ar
  26   15   20 ar
  27   16   17 ar
  28   17   18 ar
  29   17   39 1
  30   18   19 ar
  31   18   21 1
  32   19   20 ar
  33   19   40 1
  34   20   41 1
  35   21   22 1
  36   21   26 1
  37   22   23 1
  38   22   42 1
  39   22   43 1
  40   23   24 1
  41   23   44 1
  42   23   45 1
  43   24   25 1
  44   24   46 1
  45   25   26 1
  46   25   47 1
  47   25   48 1
  48   26   49 1
  49   26   50 1
  50   27   28 1
  51   27   31 1
  52   27   51 1
  53   28   29 1
  54   28   52 1
  55   28   53 1
  56   29   30 1
  57   29   54 1
  58   29   55 1
  59   30   31 1
  60   30   56 1
  61   30   57 1
  62   31   58 1
  63   31   59 1
  64   32   33 3

#	End of record

