#	Name: ASD05060013
#	Creating user name:	WinNT
#	Creation time:	15. 06. 2019 20:56

#	Modifying user name:	WinNT
#	Modification time:	15. 06. 2019 20:56

#	Program:	/corina/corina34_cracker 3.40 0067  02.08.2006

@<TRIPOS>MOLECULE
ASD05060013
 133  133    0    0    0
SMALL
NO_CHARGES


@<TRIPOS>ATOM
   1 N1            -1.9751     3.8586    -2.3742 N.3     
   2 N2            -2.0303     2.5066    -2.9062 N.3     
   3 C3            -3.4206     2.0560    -3.0554 C.3     
   4 C4            -3.9101     1.4964    -1.7446 C.2     
   5 N5            -5.1605     1.8345    -1.3108 N.am    
   6 C6            -5.5649     1.2431    -0.0151 C.3     
   7 C7            -6.6603     2.0902     0.5796 C.2     
   8 N8            -6.7598     2.1883     1.9336 N.am    
   9 C9            -7.8517     3.0334     2.4563 C.3     
  10 C10           -7.2821     3.9963     3.4657 C.2     
  11 N11           -7.7701     5.2714     3.5065 N.am    
  12 C12           -7.1612     6.1527     4.5285 C.3     
  13 C13           -6.6673     7.4056     3.8521 C.2     
  14 N14           -5.5788     8.0460     4.3599 N.am    
  15 C15           -5.1412     9.2670     3.6545 C.3     
  16 C16           -3.6714     9.1486     3.3431 C.2     
  17 N17           -3.1518     9.8999     2.3277 N.am    
  18 C18           -1.7022     9.7230     2.0835 C.3     
  19 C19           -1.4961     9.4001     0.6259 C.2     
  20 C20           -0.5467     8.3274     0.2292 C.2     
  21 C21           -0.3430     8.0025    -1.2283 C.3     
  22 N22           -0.2010     6.5403    -1.3753 N.am    
  23 C23           -0.7893     5.9776    -2.4661 C.2     
  24 C24           -0.6811     4.4881    -2.6696 C.3     
  25 O25           -1.3922     6.6650    -3.2629 O.2     
  26 O26            0.0619     7.7163     1.0749 O.2     
  27 O27           -2.1028    10.0128    -0.2200 O.2     
  28 O28           -2.9630     8.4002     3.9826 O.2     
  29 O29           -7.2315     7.8370     2.8690 O.2     
  30 O30           -6.4061     3.6458     4.2277 O.2     
  31 O31           -7.4427     2.6761    -0.1383 O.2     
  32 O32           -3.2069     0.7588    -1.0870 O.2     
  33 C33           -0.9610    11.0149     2.4332 C.3     
  34 C34           -1.0869    11.2849     3.9339 C.3     
  35 C35           -0.3673    10.1819     4.7127 C.3     
  36 C36           -0.4537    12.6382     4.2636 C.3     
  37 C37            0.3875     3.9216    -1.7326 C.3     
  38 O38            0.5379     2.5210    -1.9732 O.3     
  39 C39           -4.2993     3.2398    -3.4646 C.3     
  40 C40           -3.8081     3.8019    -4.8001 C.3     
  41 C41           -4.6869     4.9857    -5.2093 C.3     
  42 N42           -4.2165     5.5240    -6.4881 N.pl3   
  43 C43           -4.8563     6.5989    -7.0584 C.2     
  44 N44           -5.8813     7.1392    -6.4614 N.2     
  45 N45           -4.4149     7.1041    -8.2585 N.pl3   
  46 C46           -8.4906     3.8147     1.3064 C.3     
  47 C47           -7.4020     4.5528     0.5246 C.3     
  48 C48           -7.1065     5.8922     1.2027 C.3     
  49 C49           -9.2195     2.8451     0.3740 C.3     
  50 C50           -6.0802    -0.1800    -0.2386 C.3     
  51 C51           -4.9376    -1.0625    -0.7453 C.3     
  52 C52           -5.4530    -2.4856    -0.9689 C.3     
  53 C53           -4.3104    -3.3680    -1.4756 C.3     
  54 N54           -4.8052    -4.7345    -1.6902 N.3     
  55 C55           -5.9306     9.4177     2.3526 C.3     
  56 C56           -5.5936     8.2780     1.4260 C.2     
  57 O57           -4.9294     7.3461     1.8276 O.2     
  58 N58           -6.0304     8.2943     0.1511 N.am    
  59 C59           -8.6257     5.2747     6.3267 C.2     
  60 C60           -8.2088     6.5170     5.5823 C.3     
  61 O61           -8.1351     4.2075     6.0434 O.2     
  62 O62           -9.5419     5.3538     7.3044 O.3     
  63 C63           -2.7806     7.7317    -1.5946 C.2     
  64 C64           -1.5511     8.4839    -2.0345 C.3     
  65 O65           -2.7196     6.9683    -0.6600 O.2     
  66 O66           -3.9434     7.9098    -2.2410 O.3     
  67 H67           -2.7379     4.4173    -2.7266 H       
  68 H68           -1.5333     2.4421    -3.7819 H       
  69 H69           -3.4718     1.2832    -3.8223 H       
  70 H70           -5.7436     2.4214    -1.8171 H       
  71 H71           -4.7099     1.2234     0.6608 H       
  72 H72           -6.1450     1.7263     2.5248 H       
  73 H73           -8.6029     2.4049     2.9348 H       
  74 H74           -8.4677     5.5786     2.9066 H       
  75 H75           -6.3249     5.6392     5.0028 H       
  76 H76           -5.1140     7.7168     5.1451 H       
  77 H77           -5.3111    10.1365     4.2896 H       
  78 H78           -3.6953    10.5077     1.8022 H       
  79 H79           -1.3252     8.9043     2.6965 H       
  80 H80            0.5595     8.4954    -1.5898 H       
  81 H81            0.2869     6.0078    -0.7277 H       
  82 H82           -0.4043     4.2818    -3.7035 H       
  83 H83            0.0917    10.9126     2.1696 H       
  84 H84           -1.3958    11.8453     1.8769 H       
  85 H85           -2.1404    11.2990     4.2134 H       
  86 H86           -0.4571    10.3743     5.7819 H       
  87 H87           -0.8184     9.2178     4.4779 H       
  88 H88            0.6861    10.1679     4.4332 H       
  89 H89           -0.9663    13.4240     3.7088 H       
  90 H90           -0.5434    12.8305     5.3327 H       
  91 H91            0.5998    12.6241     3.9841 H       
  92 H92            1.3362     4.4258    -1.9165 H       
  93 H93            0.0853     4.0820    -0.6977 H       
  94 H94            1.2008     2.0947    -1.4130 H       
  95 H95           -5.3320     2.9069    -3.5683 H       
  96 H96           -4.2425     4.0155    -2.7009 H       
  97 H97           -2.7754     4.1348    -4.6964 H       
  98 H98           -3.8649     3.0262    -5.5637 H       
  99 H99           -5.7196     4.6528    -5.3130 H       
 100 H100          -4.6301     5.7614    -4.4457 H       
 101 H101          -3.4538     5.1219    -6.9324 H       
 102 H102          -6.3327     7.8976    -6.8638 H       
 103 H103          -3.6521     6.7020    -8.7028 H       
 104 H104          -4.8663     7.8625    -8.6609 H       
 105 H105          -9.2018     4.5362     1.7083 H       
 106 H106          -6.4955     3.9479     0.5046 H       
 107 H107          -7.7436     4.7295    -0.4953 H       
 108 H108          -6.6075     5.7148     2.1554 H       
 109 H109          -6.4603     6.4900     0.5599 H       
 110 H110          -8.0410     6.4258     1.3757 H       
 111 H111         -10.1791     2.5713     0.8127 H       
 112 H112          -9.3846     3.3240    -0.5911 H       
 113 H113          -8.6142     1.9491     0.2362 H       
 114 H114          -6.4595    -0.5809     0.7013 H       
 115 H115          -6.8820    -0.1643    -0.9768 H       
 116 H116          -4.5583    -0.6616    -1.6853 H       
 117 H117          -4.1358    -1.0781    -0.0071 H       
 118 H118          -5.8323    -2.8865    -0.0289 H       
 119 H119          -6.2548    -2.4699    -1.7071 H       
 120 H120          -3.9311    -2.9671    -2.4155 H       
 121 H121          -3.5086    -3.3837    -0.7374 H       
 122 H122          -5.5919    -4.7391    -2.3221 H       
 123 H123          -4.0687    -5.3373    -2.0253 H       
 124 H124          -6.9983     9.4045     2.5715 H       
 125 H125          -5.6690    10.3626     1.8763 H       
 126 H126          -6.5617     9.0396    -0.1701 H       
 127 H127          -5.8135     7.5607    -0.4453 H       
 128 H128          -7.7843     7.2354     6.2835 H       
 129 H129          -9.0783     6.9566     5.0935 H       
 130 H130          -9.7772     4.5303     7.7533 H       
 131 H131          -1.6983     9.5508    -1.8664 H       
 132 H132          -1.3752     8.3040    -3.0951 H       
 133 H133          -4.7045     7.4054    -1.9224 H       
@<TRIPOS>BOND
   1    1    2 1
   2    1   24 1
   3    1   67 1
   4    2    3 1
   5    2   68 1
   6    3    4 1
   7    3   39 1
   8    3   69 1
   9    4    5 am
  10    4   32 2
  11    5    6 1
  12    5   70 1
  13    6    7 1
  14    6   50 1
  15    6   71 1
  16    7    8 am
  17    7   31 2
  18    8    9 1
  19    8   72 1
  20    9   10 1
  21    9   46 1
  22    9   73 1
  23   10   11 am
  24   10   30 2
  25   11   12 1
  26   11   74 1
  27   12   13 1
  28   12   60 1
  29   12   75 1
  30   13   14 am
  31   13   29 2
  32   14   15 1
  33   14   76 1
  34   15   16 1
  35   15   55 1
  36   15   77 1
  37   16   17 am
  38   16   28 2
  39   17   18 1
  40   17   78 1
  41   18   19 1
  42   18   33 1
  43   18   79 1
  44   19   20 1
  45   19   27 2
  46   20   21 1
  47   20   26 2
  48   21   22 1
  49   21   64 1
  50   21   80 1
  51   22   23 am
  52   22   81 1
  53   23   24 1
  54   23   25 2
  55   24   37 1
  56   24   82 1
  57   33   34 1
  58   33   83 1
  59   33   84 1
  60   34   35 1
  61   34   36 1
  62   34   85 1
  63   35   86 1
  64   35   87 1
  65   35   88 1
  66   36   89 1
  67   36   90 1
  68   36   91 1
  69   37   38 1
  70   37   92 1
  71   37   93 1
  72   38   94 1
  73   39   40 1
  74   39   95 1
  75   39   96 1
  76   40   41 1
  77   40   97 1
  78   40   98 1
  79   41   42 1
  80   41   99 1
  81   41  100 1
  82   42   43 1
  83   42  101 1
  84   43   44 2
  85   43   45 1
  86   44  102 1
  87   45  103 1
  88   45  104 1
  89   46   47 1
  90   46   49 1
  91   46  105 1
  92   47   48 1
  93   47  106 1
  94   47  107 1
  95   48  108 1
  96   48  109 1
  97   48  110 1
  98   49  111 1
  99   49  112 1
 100   49  113 1
 101   50   51 1
 102   50  114 1
 103   50  115 1
 104   51   52 1
 105   51  116 1
 106   51  117 1
 107   52   53 1
 108   52  118 1
 109   52  119 1
 110   53   54 1
 111   53  120 1
 112   53  121 1
 113   54  122 1
 114   54  123 1
 115   55   56 1
 116   55  124 1
 117   55  125 1
 118   56   57 2
 119   56   58 am
 120   58  126 1
 121   58  127 1
 122   59   60 1
 123   59   61 2
 124   59   62 1
 125   60  128 1
 126   60  129 1
 127   62  130 1
 128   63   64 1
 129   63   65 2
 130   63   66 1
 131   64  131 1
 132   64  132 1
 133   66  133 1

#	End of record

