#	Name: ASD01910272
#	Creating user name:	WinNT
#	Creation time:	15. 06. 2019 19:55

#	Modifying user name:	WinNT
#	Modification time:	15. 06. 2019 19:55

#	Program:	/corina/corina34_cracker 3.40 0067  02.08.2006

@<TRIPOS>MOLECULE
ASD01910272
  46   48    0    0    0
SMALL
NO_CHARGES


@<TRIPOS>ATOM
   1 C1             0.0019     1.3802    -0.0383 C.ar    
   2 C2            -1.0148     1.7338    -0.9280 C.ar    
   3 C3            -2.1935     1.0193    -0.9428 C.ar    
   4 C4            -2.3706    -0.0487    -0.0765 C.ar    
   5 C5            -1.3644    -0.4040     0.8088 C.ar    
   6 C6            -0.1795     0.3000     0.8280 C.ar    
   7 F7            -3.5280    -0.7454    -0.0948 F       
   8 C8             1.2672     2.1423    -0.0179 C.2     
   9 O9             2.3276     1.5572     0.0864 O.2     
  10 N10            1.2459     3.4864    -0.1150 N.am    
  11 C11            2.4875     4.2645    -0.0066 C.3     
  12 C12            2.3060     5.3346     1.0745 C.3     
  13 C13            1.0654     6.1718     0.7548 C.3     
  14 C14           -0.1726     5.2721     0.7530 C.3     
  15 C15           -0.0184     4.2010    -0.3374 C.3     
  16 C16            3.5200     6.2268     1.1080 C.2     
  17 N17            4.7341     5.7032     1.3692 N.am    
  18 O18            3.4045     7.4161     0.8998 O.2     
  19 C19            5.8761     6.5097     1.2903 C.ar    
  20 C20            6.8400     6.2573     0.3232 C.ar    
  21 C21            7.9657     7.0539     0.2471 C.ar    
  22 C22            8.1334     8.1037     1.1343 C.ar    
  23 C23            7.1736     8.3568     2.0998 C.ar    
  24 C24            6.0435     7.5664     2.1754 C.ar    
  25 F25            9.2352     8.8818     1.0582 F       
  26 C26            4.8591     4.2903     1.7358 C.3     
  27 H27           -0.8780     2.5657    -1.6029 H       
  28 H28           -2.9806     1.2921    -1.6301 H       
  29 H29           -1.5077    -1.2366     1.4817 H       
  30 H30            0.6037     0.0222     1.5177 H       
  31 H31            3.3100     3.6039     0.2676 H       
  32 H32            2.7034     4.7432    -0.9618 H       
  33 H33            2.1804     4.8538     2.0447 H       
  34 H34            0.9480     6.9496     1.5093 H       
  35 H35            1.1811     6.6323    -0.2263 H       
  36 H36           -0.2749     4.7920     1.7262 H       
  37 H37           -1.0587     5.8730     0.5483 H       
  38 H38           -0.0079     4.6767    -1.3181 H       
  39 H39           -0.8493     3.4979    -0.2790 H       
  40 H40            6.7097     5.4384    -0.3688 H       
  41 H41            8.7157     6.8577    -0.5048 H       
  42 H42            7.3066     9.1757     2.7914 H       
  43 H43            5.2951     7.7641     2.9285 H       
  44 H44            4.9966     3.6921     0.8350 H       
  45 H45            5.7188     4.1602     2.3931 H       
  46 H46            3.9549     3.9675     2.2519 H       
@<TRIPOS>BOND
   1    1    2 ar
   2    1    8 1
   3    1    6 ar
   4    2    3 ar
   5    2   27 1
   6    3    4 ar
   7    3   28 1
   8    4    5 ar
   9    4    7 1
  10    5    6 ar
  11    5   29 1
  12    6   30 1
  13    8    9 2
  14    8   10 am
  15   10   11 1
  16   10   15 1
  17   11   12 1
  18   11   31 1
  19   11   32 1
  20   12   13 1
  21   12   16 1
  22   12   33 1
  23   13   14 1
  24   13   34 1
  25   13   35 1
  26   14   15 1
  27   14   36 1
  28   14   37 1
  29   15   38 1
  30   15   39 1
  31   16   17 am
  32   16   18 2
  33   17   19 1
  34   17   26 1
  35   19   20 ar
  36   19   24 ar
  37   20   21 ar
  38   20   40 1
  39   21   22 ar
  40   21   41 1
  41   22   23 ar
  42   22   25 1
  43   23   24 ar
  44   23   42 1
  45   24   43 1
  46   26   44 1
  47   26   45 1
  48   26   46 1

#	End of record

