#	Name: ASD00450073
#	Creating user name:	WinNT
#	Creation time:	15. 06. 2019 18:36

#	Modifying user name:	WinNT
#	Modification time:	15. 06. 2019 18:36

#	Program:	/corina/corina34_cracker 3.40 0067  02.08.2006

@<TRIPOS>MOLECULE
ASD00450073
  46   48    0    0    0
SMALL
NO_CHARGES


@<TRIPOS>ATOM
   1 C1            -0.5743     1.6854     0.3576 C.ar    
   2 C2            -0.5797     0.2822     0.3297 C.ar    
   3 C3             0.5974    -0.4151     0.5389 C.ar    
   4 C4             1.7807     0.2665     0.7761 C.ar    
   5 C5             1.7992     1.6517     0.8066 C.ar    
   6 C6             0.6295     2.3695     0.5983 C.ar    
   7 C7            -1.8186     2.4348     0.1304 C.2     
   8 O8            -2.5341     2.7251     1.0705 O.2     
   9 N9            -2.1667     2.8002    -1.1193 N.am    
  10 N10            0.6487     3.7598     0.6281 N.pl3   
  11 C11            1.8585     4.4460     0.4789 C.ar    
  12 C12            2.5070     4.4561    -0.7516 C.ar    
  13 C13            2.4120     5.1232     1.5573 C.ar    
  14 C14            3.6069     5.7999     1.4072 C.ar    
  15 C15            4.2529     5.8045     0.1839 C.ar    
  16 C16            3.7028     5.1356    -0.8949 C.ar    
  17 F17            2.9237    -0.4244     0.9795 F       
  18 F18            1.9696     3.8029    -1.8050 F       
  19 I19            6.0640     6.8338    -0.0376 I       
  20 F20            2.9585     2.3052     1.0393 F       
  21 O21           -1.7360    -0.3891     0.0986 O.3     
  22 C22           -1.6810    -1.7441     0.0135 C.ar    
  23 C23           -1.6154    -2.5093     1.1673 C.ar    
  24 C24           -1.5598    -3.8935     1.0768 C.ar    
  25 C25           -1.5700    -4.5071    -0.1697 C.ar    
  26 C26           -1.6354    -3.7408    -1.3174 C.ar    
  27 C27           -1.6961    -2.3633    -1.2291 C.ar    
  28 N28           -1.4932    -4.6681     2.2371 N.am    
  29 S29           -2.8365    -4.8524     3.1878 S.o2    
  30 O30           -2.4669    -5.7360     4.2375 O.2     
  31 O31           -3.3495    -3.5469     3.4151 O.2     
  32 N32           -3.9715    -5.6498     2.2832 N.am    
  33 H33            0.5938    -1.4949     0.5175 H       
  34 H34           -1.5962     2.5688    -1.8689 H       
  35 H35           -2.9876     3.2947    -1.2692 H       
  36 H36           -0.1769     4.2537     0.7523 H       
  37 H37            1.9085     5.1212     2.5127 H       
  38 H38            4.0372     6.3267     2.2461 H       
  39 H39            4.2076     5.1441    -1.8496 H       
  40 H40           -1.6073    -2.0296     2.1349 H       
  41 H41           -1.5263    -5.5839    -0.2415 H       
  42 H42           -1.6432    -4.2196    -2.2854 H       
  43 H43           -1.7472    -1.7670    -2.1281 H       
  44 H44           -0.6601    -5.0980     2.4860 H       
  45 H45           -3.7449    -5.9757     1.3982 H       
  46 H46           -4.8630    -5.7911     2.6385 H       
@<TRIPOS>BOND
   1    1    2 ar
   2    1    6 ar
   3    1    7 1
   4    2    3 ar
   5    2   21 1
   6    3    4 ar
   7    3   33 1
   8    4    5 ar
   9    4   17 1
  10    5    6 ar
  11    5   20 1
  12    6   10 1
  13    7    8 2
  14    7    9 am
  15    9   34 1
  16    9   35 1
  17   10   11 1
  18   10   36 1
  19   11   13 ar
  20   11   12 ar
  21   12   16 ar
  22   12   18 1
  23   13   14 ar
  24   13   37 1
  25   14   15 ar
  26   14   38 1
  27   15   16 ar
  28   15   19 1
  29   16   39 1
  30   21   22 1
  31   22   23 ar
  32   22   27 ar
  33   23   24 ar
  34   23   40 1
  35   24   25 ar
  36   24   28 1
  37   25   26 ar
  38   25   41 1
  39   26   27 ar
  40   26   42 1
  41   27   43 1
  42   28   29 am
  43   28   44 1
  44   29   30 2
  45   29   31 2
  46   29   32 am
  47   32   45 1
  48   32   46 1

#	End of record

