#	Name: ASD01030004
#	Creating user name:	WinNT
#	Creation time:	15. 06. 2019 18:58

#	Modifying user name:	WinNT
#	Modification time:	15. 06. 2019 18:58

#	Program:	/corina/corina34_cracker 3.40 0067  02.08.2006

@<TRIPOS>MOLECULE
ASD01030004
  59   58    0    0    0
SMALL
NO_CHARGES


@<TRIPOS>ATOM
   1 C1            -3.0580    -0.6118     0.5752 C.2     
   2 C2            -2.5516    -2.0252     0.4458 C.3     
   3 C3            -1.0217    -2.0192     0.4268 C.3     
   4 C4            -0.5076    -3.4542     0.2954 C.3     
   5 C5             1.0222    -3.4482     0.2764 C.3     
   6 C6             1.5363    -4.8832     0.1450 C.3     
   7 C7             3.0662    -4.8771     0.1260 C.3     
   8 C8             3.5803    -6.3122    -0.0054 C.3     
   9 C9             5.0872    -6.3062    -0.0241 C.2     
  10 C10            5.7564    -6.9187     0.9209 C.2     
  11 C11            5.0293    -7.4852     2.1132 C.3     
  12 C12            5.2062    -9.0046     2.1438 C.3     
  13 C13            4.5850    -9.5646     3.4250 C.3     
  14 C14            4.8704   -11.0650     3.5165 C.3     
  15 C15            4.2493   -11.6251     4.7977 C.3     
  16 C16            4.5346   -13.1254     4.8892 C.3     
  17 C17            3.9135   -13.6855     6.1704 C.3     
  18 C18            4.1989   -15.1858     6.2619 C.3     
  19 O19           -2.2755     0.3062     0.6451 O.2     
  20 O20           -4.3783    -0.3722     0.6073 O.3     
  21 O21            4.5588    -9.5825     1.0085 O.3     
  22 S22            5.5121   -10.2370     0.0189 S.o2    
  23 O23            4.7354   -10.5778    -1.1212 O.2     
  24 O24            6.6604    -9.4022    -0.0443 O.2     
  25 O25            5.9696   -11.5511     0.6357 O.3     
  26 H26           -2.9021    -2.6157     1.2923 H       
  27 H27           -2.9247    -2.4614    -0.4808 H       
  28 H28           -0.6712    -1.4287    -0.4197 H       
  29 H29           -0.6486    -1.5830     1.3534 H       
  30 H30           -0.8581    -4.0447     1.1419 H       
  31 H31           -0.8808    -3.8904    -0.6312 H       
  32 H32            1.3728    -2.8577    -0.5701 H       
  33 H33            1.3954    -3.0120     1.2030 H       
  34 H34            1.1858    -5.4737     0.9915 H       
  35 H35            1.1632    -5.3194    -0.7816 H       
  36 H36            3.4167    -4.2867    -0.7205 H       
  37 H37            3.4393    -4.4409     1.0526 H       
  38 H38            3.2298    -6.9026     0.8411 H       
  39 H39            3.2072    -6.7484    -0.9320 H       
  40 H40            5.6154    -5.7970    -0.8166 H       
  41 H41            6.8292    -7.0177     0.8456 H       
  42 H42            5.4378    -7.0533     3.0268 H       
  43 H43            3.9687    -7.2443     2.0401 H       
  44 H44            6.2685    -9.2472     2.1189 H       
  45 H45            5.0166    -9.0593     4.2890 H       
  46 H46            3.5077    -9.4001     3.4085 H       
  47 H47            4.4389   -11.5703     2.6525 H       
  48 H48            5.9478   -11.2296     3.5330 H       
  49 H49            4.6808   -11.1198     5.6617 H       
  50 H50            3.1719   -11.4605     4.7812 H       
  51 H51            4.1031   -13.6307     4.0252 H       
  52 H52            5.6120   -13.2900     4.9057 H       
  53 H53            4.3450   -13.1802     7.0344 H       
  54 H54            2.8361   -13.5209     6.1539 H       
  55 H55            3.7673   -15.6911     5.3979 H       
  56 H56            5.2762   -15.3504     6.2784 H       
  57 H57            3.7563   -15.5848     7.1746 H       
  58 H58           -4.6551     0.5505     0.6913 H       
  59 H59            6.5848   -12.0520     0.0829 H       
@<TRIPOS>BOND
   1    1    2 1
   2    1   19 2
   3    1   20 1
   4    2    3 1
   5    2   26 1
   6    2   27 1
   7    3    4 1
   8    3   28 1
   9    3   29 1
  10    4    5 1
  11    4   30 1
  12    4   31 1
  13    5    6 1
  14    5   32 1
  15    5   33 1
  16    6    7 1
  17    6   34 1
  18    6   35 1
  19    7    8 1
  20    7   36 1
  21    7   37 1
  22    8    9 1
  23    8   38 1
  24    8   39 1
  25    9   10 2
  26    9   40 1
  27   10   11 1
  28   10   41 1
  29   11   12 1
  30   11   42 1
  31   11   43 1
  32   12   13 1
  33   12   21 1
  34   12   44 1
  35   13   14 1
  36   13   45 1
  37   13   46 1
  38   14   15 1
  39   14   47 1
  40   14   48 1
  41   15   16 1
  42   15   49 1
  43   15   50 1
  44   16   17 1
  45   16   51 1
  46   16   52 1
  47   17   18 1
  48   17   53 1
  49   17   54 1
  50   18   55 1
  51   18   56 1
  52   18   57 1
  53   20   58 1
  54   21   22 1
  55   22   23 2
  56   22   24 2
  57   22   25 1
  58   25   59 1

#	End of record

