#	Name: ASD08178426
#	Creating user name:	WinNT
#	Creation time:	15. 06. 2019 21:18

#	Modifying user name:	WinNT
#	Modification time:	15. 06. 2019 21:18

#	Program:	/corina/corina34_cracker 3.40 0067  02.08.2006

@<TRIPOS>MOLECULE
ASD08178426
  87   89    0    0    0
SMALL
NO_CHARGES


@<TRIPOS>ATOM
   1 N1            -0.0175     1.2958     0.4994 N.am    
   2 C2             0.1032     0.0070    -0.0093 C.2     
   3 C3            -0.9975    -0.6769    -0.3804 C.2     
   4 N4             1.3583    -0.5755    -0.1351 N.pl3   
   5 N5            -3.2230    -2.1315    -1.1596 N.pl3   
   6 C6            -1.9632    -2.7162    -1.2858 C.2     
   7 C7            -0.8701    -2.0369    -0.9173 C.2     
   8 C8            -1.8324    -4.1126    -1.8371 C.3     
   9 C9            -2.0283    -5.1269    -0.7084 C.3     
  10 C10           -1.8955    -6.5447    -1.2681 C.3     
  11 C11           -2.0913    -7.5589    -0.1395 C.3     
  12 C12           -1.9605    -8.9554    -0.6907 C.2     
  13 N13           -0.8670    -9.6444    -0.7743 N.2     
  14 N14           -0.9650   -10.8018    -1.2690 N.2     
  15 C15           -2.1426   -11.1979    -1.6478 C.2     
  16 S16           -3.2705    -9.9481    -1.3310 S.3     
  17 N17           -2.4394   -12.4340    -2.2118 N.am    
  18 C18           -1.4598   -13.3392    -2.4052 C.2     
  19 C19           -1.7815   -14.6787    -3.0163 C.3     
  20 O20           -0.3194   -13.0758    -2.0875 O.2     
  21 C21           -0.5212   -15.4979    -3.1229 C.ar    
  22 C22           -0.1432   -16.3235    -2.0805 C.ar    
  23 C23            1.0668     1.9337     0.9830 C.2     
  24 C24            0.9617     3.3714     1.4222 C.3     
  25 O25            2.1273     1.3505     1.0646 O.2     
  26 C26            2.3038     3.8446     1.9181 C.ar    
  27 C27            3.2016     4.4202     1.0391 C.ar    
  28 C28            4.4329     4.8543     1.4940 C.ar    
  29 C29            4.7658     4.7130     2.8280 C.ar    
  30 C30            3.8673     4.1380     3.7076 C.ar    
  31 C31            2.6347     3.7080     3.2536 C.ar    
  32 C32            1.0129   -17.0750    -2.1782 C.ar    
  33 C33            1.7909   -17.0012    -3.3185 C.ar    
  34 C34            1.4125   -16.1763    -4.3612 C.ar    
  35 C35            0.2541   -15.4282    -4.2653 C.ar    
  36 C36            5.4123     5.4810     0.5354 C.3     
  37 N37            6.0757     6.6137     1.1859 N.am    
  38 C38            6.4594     4.4436     0.1252 C.3     
  39 C39            6.5867     7.6139     0.4410 C.2     
  40 C40            7.2691     8.7790     1.1102 C.3     
  41 O41            6.4973     7.5762    -0.7680 O.2     
  42 C42            7.7544     9.7655     0.0462 C.3     
  43 C43            6.5492    10.3654    -0.6808 C.3     
  44 C44            8.5551    10.8844     0.7154 C.3     
  45 H45           -0.8813     1.7370     0.5026 H       
  46 H46           -1.9731    -0.2242    -0.2826 H       
  47 H47            2.1397    -0.0182    -0.2759 H       
  48 H48            1.4531    -1.5394    -0.0820 H       
  49 H49           -3.3072    -1.2327    -0.8047 H       
  50 H50           -4.0150    -2.6237    -1.4266 H       
  51 H51            0.1056    -2.4897    -1.0150 H       
  52 H52           -2.5895    -4.2726    -2.6047 H       
  53 H53           -0.8412    -4.2401    -2.2721 H       
  54 H54           -1.2712    -4.9669     0.0593 H       
  55 H55           -3.0195    -4.9994    -0.2733 H       
  56 H56           -2.6525    -6.7046    -2.0358 H       
  57 H57           -0.9042    -6.6722    -1.7032 H       
  58 H58           -1.3343    -7.3990     0.6282 H       
  59 H59           -3.0826    -7.4314     0.2956 H       
  60 H60           -3.3515   -12.6447    -2.4659 H       
  61 H61           -2.5024   -15.2012    -2.3876 H       
  62 H62           -2.2049   -14.5324    -4.0100 H       
  63 H63           -0.7511   -16.3811    -1.1896 H       
  64 H64            0.6483     3.9869     0.5790 H       
  65 H65            0.2283     3.4536     2.2244 H       
  66 H66            2.9415     4.5306    -0.0033 H       
  67 H67            5.7279     5.0514     3.1833 H       
  68 H68            4.1275     4.0272     4.7499 H       
  69 H69            1.9328     3.2588     3.9406 H       
  70 H70            1.3085   -17.7194    -1.3635 H       
  71 H71            2.6945   -17.5878    -3.3945 H       
  72 H72            2.0205   -16.1185    -5.2519 H       
  73 H73           -0.0416   -14.7837    -5.0799 H       
  74 H74            4.8811     5.8307    -0.3499 H       
  75 H75            6.1471     6.6438     2.1528 H       
  76 H76            5.9659     3.6009    -0.3588 H       
  77 H77            7.1678     4.8970    -0.5682 H       
  78 H78            6.9907     4.0940     1.0105 H       
  79 H79            6.5652     9.2792     1.7753 H       
  80 H80            8.1208     8.4187     1.6871 H       
  81 H81            8.3884     9.2438    -0.6708 H       
  82 H82            5.9152    10.8871     0.0362 H       
  83 H83            6.8950    11.0682    -1.4388 H       
  84 H84            5.9788     9.5683    -1.1576 H       
  85 H85            9.4137    10.4570     1.2333 H       
  86 H86            8.9009    11.5872    -0.0426 H       
  87 H87            7.9211    11.4061     1.4324 H       
@<TRIPOS>BOND
   1    1    2 1
   2    1   23 am
   3    1   45 1
   4    2    3 2
   5    2    4 1
   6    3    7 1
   7    3   46 1
   8    4   47 1
   9    4   48 1
  10    5    6 1
  11    5   49 1
  12    5   50 1
  13    6    7 2
  14    6    8 1
  15    7   51 1
  16    8    9 1
  17    8   52 1
  18    8   53 1
  19    9   10 1
  20    9   54 1
  21    9   55 1
  22   10   11 1
  23   10   56 1
  24   10   57 1
  25   11   12 1
  26   11   58 1
  27   11   59 1
  28   12   13 2
  29   12   16 1
  30   13   14 1
  31   14   15 2
  32   15   16 1
  33   15   17 1
  34   17   18 am
  35   17   60 1
  36   18   19 1
  37   18   20 2
  38   19   21 1
  39   19   61 1
  40   19   62 1
  41   21   22 ar
  42   21   35 ar
  43   22   32 ar
  44   22   63 1
  45   23   24 1
  46   23   25 2
  47   24   26 1
  48   24   64 1
  49   24   65 1
  50   26   27 ar
  51   26   31 ar
  52   27   28 ar
  53   27   66 1
  54   28   29 ar
  55   28   36 1
  56   29   30 ar
  57   29   67 1
  58   30   31 ar
  59   30   68 1
  60   31   69 1
  61   32   33 ar
  62   32   70 1
  63   33   34 ar
  64   33   71 1
  65   34   35 ar
  66   34   72 1
  67   35   73 1
  68   36   37 1
  69   36   38 1
  70   36   74 1
  71   37   39 am
  72   37   75 1
  73   38   76 1
  74   38   77 1
  75   38   78 1
  76   39   40 1
  77   39   41 2
  78   40   42 1
  79   40   79 1
  80   40   80 1
  81   42   43 1
  82   42   44 1
  83   42   81 1
  84   43   82 1
  85   43   83 1
  86   43   84 1
  87   44   85 1
  88   44   86 1
  89   44   87 1

#	End of record

