#	Name: ASD01880723
#	Creating user name:	WinNT
#	Creation time:	15. 06. 2019 19:41

#	Modifying user name:	WinNT
#	Modification time:	15. 06. 2019 19:41

#	Program:	/corina/corina34_cracker 3.40 0067  02.08.2006

@<TRIPOS>MOLECULE
ASD01880723
  38   40    0    0    0
SMALL
NO_CHARGES


@<TRIPOS>ATOM
   1 N1            -0.0158     1.3135     0.0093 N.ar    
   2 C2             0.0021    -0.0041     0.0020 C.ar    
   3 N3             1.1317    -0.6829    -0.0120 N.ar    
   4 C4             2.2994    -0.0577    -0.0198 C.ar    
   5 C5             2.3220     1.3288    -0.0130 C.ar    
   6 C6             1.1127     2.0078     0.0022 C.ar    
   7 C7             3.6287     2.0795    -0.0214 C.3     
   8 O8             4.0291     2.3236    -1.3713 O.3     
   9 C9             5.1940     2.9947    -1.5566 C.ar    
  10 C10            5.6425     3.2658    -2.8457 C.ar    
  11 C11            6.8208     3.9451    -3.0318 C.ar    
  12 C12            7.5754     4.3677    -1.9323 C.ar    
  13 C13            7.1202     4.0932    -0.6398 C.ar    
  14 C14            5.9350     3.4156    -0.4588 C.ar    
  15 C15            7.5732     4.3903    -4.2610 C.3     
  16 N16            8.7766     5.0773    -3.7783 N.am    
  17 C17            8.7739     5.0619    -2.4344 C.2     
  18 O18            9.6376     5.5517    -1.7326 O.2     
  19 Br19           3.9136    -1.0424    -0.0392 Br      
  20 C20            7.9229     4.5418     0.5541 C.3     
  21 Cl21           1.0781     3.7435     0.0107 Cl      
  22 C22            9.4525     7.1407    -4.9039 C.3     
  23 C23            9.8112     5.6802    -4.6224 C.3     
  24 H24           -0.9343    -0.5423     0.0081 H       
  25 H25            3.5052     3.0296     0.4984 H       
  26 H26            4.3918     1.4862     0.4823 H       
  27 H27            5.0646     2.9419    -3.6986 H       
  28 H28            5.5836     3.2041     0.5403 H       
  29 H29            7.8516     3.5257    -4.8635 H       
  30 H30            6.9608     5.0751    -4.8477 H       
  31 H31            7.6049     5.5412     0.8511 H       
  32 H32            7.7631     3.8492     1.3805 H       
  33 H33            8.9814     4.5596     0.2944 H       
  34 H34            9.3876     7.6868    -3.9628 H       
  35 H35           10.2222     7.5893    -5.5320 H       
  36 H36            8.4922     7.1865    -5.4176 H       
  37 H37           10.7715     5.6344    -4.1088 H       
  38 H38            9.8761     5.1341    -5.5635 H       
@<TRIPOS>BOND
   1    1    2 ar
   2    1    6 ar
   3    2    3 ar
   4    2   24 1
   5    3    4 ar
   6    4    5 ar
   7    4   19 1
   8    5    6 ar
   9    5    7 1
  10    6   21 1
  11    7    8 1
  12    7   25 1
  13    7   26 1
  14    8    9 1
  15    9   10 ar
  16    9   14 ar
  17   10   11 ar
  18   10   27 1
  19   11   12 ar
  20   11   15 1
  21   12   13 ar
  22   12   17 1
  23   13   14 ar
  24   13   20 1
  25   14   28 1
  26   15   16 1
  27   15   29 1
  28   15   30 1
  29   16   17 am
  30   16   23 1
  31   17   18 2
  32   20   31 1
  33   20   32 1
  34   20   33 1
  35   22   23 1
  36   22   34 1
  37   22   35 1
  38   22   36 1
  39   23   37 1
  40   23   38 1

#	End of record

