#	Name: ASD06560022
#	Creating user name:	WinNT
#	Creation time:	15. 06. 2019 21:06

#	Modifying user name:	WinNT
#	Modification time:	15. 06. 2019 21:06

#	Program:	/corina/corina34_cracker 3.40 0067  02.08.2006

@<TRIPOS>MOLECULE
ASD06560022
  51   54    0    0    0
SMALL
NO_CHARGES


@<TRIPOS>ATOM
   1 C1            -0.0184     1.5028     0.0103 C.3     
   2 C2             0.0021    -0.0041     0.0020 C.2     
   3 C3             0.0079    -0.8170    -1.1378 C.2     
   4 C4             0.0273    -2.1064    -0.7307 C.2     
   5 N5             0.0335    -2.1082     0.6285 N.pl3   
   6 N6             0.0230    -0.7748     1.0583 N.2     
   7 C7             0.0526    -3.2361     1.4489 C.ar    
   8 N8             0.0718    -4.4359     0.8928 N.ar    
   9 C9             0.0903    -5.5354     1.6433 C.ar    
  10 N10            0.1108    -6.7892     1.0522 N.pl3   
  11 C11            0.1311    -7.9925     1.8876 C.3     
  12 C12           -1.2998    -8.3636     2.2823 C.3     
  13 C13           -1.2786    -9.6203     3.1547 C.3     
  14 C14           -0.6501   -10.7744     2.3713 C.3     
  15 F15           -0.6307   -11.9236     3.1690 F       
  16 F16           -1.4032   -11.0199     1.2181 F       
  17 C17            0.7808   -10.4034     1.9766 C.3     
  18 C18            0.7596    -9.1467     1.1041 C.3     
  19 C19            0.0893    -5.4089     3.0291 C.ar    
  20 C20            0.0688    -4.1293     3.5767 C.ar    
  21 N21            0.0563    -3.0768     2.7621 N.ar    
  22 N22            0.0669    -3.9535     4.9518 N.3     
  23 C23            1.2212    -4.6220     5.5699 C.3     
  24 C24            1.1478    -4.4538     7.0899 C.3     
  25 O25            1.0946    -3.0606     7.4082 O.3     
  26 C26           -0.0178    -2.3783     6.8230 C.3     
  27 C27            0.0438    -2.5255     5.3003 C.3     
  28 H28            1.0042     1.8801     0.0026 H       
  29 H29           -0.5455     1.8639    -0.8728 H       
  30 H30           -0.5286     1.8543     0.9071 H       
  31 H31           -0.0017    -0.4745    -2.1621 H       
  32 H32            0.0359    -2.9770    -1.3697 H       
  33 H33            0.1117    -6.8698     0.0856 H       
  34 H34            0.7179    -7.8012     2.7861 H       
  35 H35           -1.7475    -7.5413     2.8405 H       
  36 H36           -1.8865    -8.5548     1.3838 H       
  37 H37           -0.6918    -9.4290     4.0532 H       
  38 H38           -2.2980    -9.8846     3.4359 H       
  39 H39            1.3676   -10.2121     2.8750 H       
  40 H40            1.2286   -11.2257     1.4184 H       
  41 H41            0.1729    -9.3380     0.2057 H       
  42 H42            1.7790    -8.8824     0.8229 H       
  43 H43            0.1037    -6.2822     3.6643 H       
  44 H44            1.2043    -5.6828     5.3199 H       
  45 H45            2.1430    -4.1745     5.1983 H       
  46 H46            0.2528    -4.9480     7.4679 H       
  47 H47            2.0310    -4.8985     7.5483 H       
  48 H48           -0.9466    -2.8121     7.1933 H       
  49 H49            0.0225    -1.3219     7.0885 H       
  50 H50            0.9468    -2.0444     4.9244 H       
  51 H51           -0.8325    -2.0559     4.8535 H       
@<TRIPOS>BOND
   1    1    2 1
   2    1   28 1
   3    1   29 1
   4    1   30 1
   5    2    6 2
   6    2    3 1
   7    3    4 2
   8    3   31 1
   9    4    5 1
  10    4   32 1
  11    5    6 1
  12    5    7 1
  13    7   21 ar
  14    7    8 ar
  15    8    9 ar
  16    9   10 1
  17    9   19 ar
  18   10   11 1
  19   10   33 1
  20   11   18 1
  21   11   12 1
  22   11   34 1
  23   12   13 1
  24   12   35 1
  25   12   36 1
  26   13   14 1
  27   13   37 1
  28   13   38 1
  29   14   15 1
  30   14   16 1
  31   14   17 1
  32   17   18 1
  33   17   39 1
  34   17   40 1
  35   18   41 1
  36   18   42 1
  37   19   20 ar
  38   19   43 1
  39   20   21 ar
  40   20   22 1
  41   22   27 1
  42   22   23 1
  43   23   24 1
  44   23   44 1
  45   23   45 1
  46   24   25 1
  47   24   46 1
  48   24   47 1
  49   25   26 1
  50   26   27 1
  51   26   48 1
  52   26   49 1
  53   27   50 1
  54   27   51 1

#	End of record

