#	Name: ASD04590151
#	Creating user name:	WinNT
#	Creation time:	15. 06. 2019 20:50

#	Modifying user name:	WinNT
#	Modification time:	15. 06. 2019 20:50

#	Program:	/corina/corina34_cracker 3.40 0067  02.08.2006

@<TRIPOS>MOLECULE
ASD04590151
  45   47    0    0    0
SMALL
NO_CHARGES


@<TRIPOS>ATOM
   1 N1            -0.0153     1.2802     0.0091 N.pl3   
   2 N2             0.0021    -0.0041     0.0020 N.2     
   3 C3             1.2455    -0.4440    -0.0122 C.2     
   4 C4             2.0903     0.6961    -0.0142 C.2     
   5 C5             1.2523     1.7667    -0.0004 C.2     
   6 C6             1.6764    -1.8547    -0.0235 C.2     
   7 N7             0.7570    -2.8402    -0.0200 N.am    
   8 O8             2.8611    -2.1285    -0.0359 O.2     
   9 N9             3.4928     0.7146    -0.0275 N.am    
  10 C10            4.1513     1.8906    -0.0274 C.2     
  11 C11            1.1850    -4.2413    -0.0312 C.3     
  12 C12            0.0893    -5.1159     0.5844 C.3     
  13 C13            0.5158    -6.5840     0.5145 C.3     
  14 N14            0.7409    -6.9635    -0.8861 N.3     
  15 C15            1.8214    -6.1692    -1.4844 C.3     
  16 C16            1.4338    -4.6888    -1.4743 C.3     
  17 O17            3.5296     2.9353    -0.0159 O.2     
  18 C18            5.6293     1.9102    -0.0414 C.ar    
  19 C19            6.3143     3.1264    -0.0414 C.ar    
  20 C20            6.3461     0.7124    -0.0489 C.ar    
  21 C21            7.7254     0.7378    -0.0615 C.ar    
  22 C22            8.3981     1.9468    -0.0663 C.ar    
  23 C23            7.6937     3.1376    -0.0541 C.ar    
  24 C24            9.9050     1.9667    -0.0795 C.3     
  25 H25           -0.8184     1.8242     0.0160 H       
  26 H26            1.5405     2.8076     0.0024 H       
  27 H27           -0.1880    -2.6218    -0.0102 H       
  28 H28            3.9888    -0.1189    -0.0367 H       
  29 H29            2.1029    -4.3464     0.5472 H       
  30 H30           -0.0626    -4.8302     1.6252 H       
  31 H31           -0.8393    -4.9800     0.0299 H       
  32 H32            1.4370    -6.7218     1.0807 H       
  33 H33           -0.2684    -7.2107     0.9391 H       
  34 H34            0.9307    -7.9512    -0.9671 H       
  35 H35            2.7365    -6.3090    -0.9089 H       
  36 H36            1.9854    -6.4947    -2.5117 H       
  37 H37            0.5264    -4.5461    -2.0611 H       
  38 H38            2.2426    -4.0979    -1.9042 H       
  39 H39            5.7656     4.0566    -0.0319 H       
  40 H40            5.8222    -0.2319    -0.0444 H       
  41 H41            8.2812    -0.1882    -0.0672 H       
  42 H42            8.2249     4.0779    -0.0582 H       
  43 H43           10.2592     1.9725    -1.1103 H       
  44 H44           10.2610     2.8609     0.4320 H       
  45 H45           10.2845     1.0811     0.4302 H       
@<TRIPOS>BOND
   1    1    2 1
   2    1    5 1
   3    1   25 1
   4    2    3 2
   5    3    4 1
   6    3    6 1
   7    4    5 2
   8    4    9 1
   9    5   26 1
  10    6    7 am
  11    6    8 2
  12    7   11 1
  13    7   27 1
  14    9   10 am
  15    9   28 1
  16   10   17 2
  17   10   18 1
  18   11   12 1
  19   11   16 1
  20   11   29 1
  21   12   13 1
  22   12   30 1
  23   12   31 1
  24   13   14 1
  25   13   32 1
  26   13   33 1
  27   14   15 1
  28   14   34 1
  29   15   16 1
  30   15   35 1
  31   15   36 1
  32   16   37 1
  33   16   38 1
  34   18   19 ar
  35   18   20 ar
  36   19   23 ar
  37   19   39 1
  38   20   21 ar
  39   20   40 1
  40   21   22 ar
  41   21   41 1
  42   22   23 ar
  43   22   24 1
  44   23   42 1
  45   24   43 1
  46   24   44 1
  47   24   45 1

#	End of record

