#	Name: ASD08178517
#	Creating user name:	WinNT
#	Creation time:	15. 06. 2019 21:19

#	Modifying user name:	WinNT
#	Modification time:	15. 06. 2019 21:19

#	Program:	/corina/corina34_cracker 3.40 0067  02.08.2006

@<TRIPOS>MOLECULE
ASD08178517
  63   66    0    0    0
SMALL
NO_CHARGES


@<TRIPOS>ATOM
   1 C1            -0.0155     1.2910     0.0091 C.2     
   2 N2             0.0021    -0.0041     0.0020 N.2     
   3 S3             1.6574     1.8505    -0.0038 S.3     
   4 C4             2.1822     0.2198    -0.0176 C.2     
   5 N5             1.1387    -0.5535    -0.0118 N.2     
   6 C6            -4.5376     4.4967     2.9341 C.2     
   7 N7            -5.7660     4.0859     2.9389 N.2     
   8 N8            -6.6597     4.9775     2.9531 N.2     
   9 C9            -6.2740     6.2178     2.9616 C.2     
  10 S10           -4.5615     6.2604     2.9502 S.3     
  11 N11           -7.1124     7.3273     2.9775 N.am    
  12 N12            3.5063    -0.2055    -0.0334 N.am    
  13 C13           -1.2444     2.1633     0.0200 C.3     
  14 C14           -1.6527     2.4511     1.4661 C.3     
  15 C15           -2.9004     3.3366     1.4771 C.3     
  16 C16           -3.3087     3.6245     2.9232 C.3     
  17 C17           -8.4499     7.1612     2.9857 C.2     
  18 O18           -8.9223     6.0442     2.9793 O.2     
  19 C19           -9.3584     8.3635     3.0028 C.3     
  20 C20          -10.8200     7.9026     3.0094 C.3     
  21 O21          -11.6670     9.0461     3.1592 O.3     
  22 C22            3.7908    -1.5228    -0.0431 C.2     
  23 O23            2.8923    -2.3374    -0.0380 O.2     
  24 C24            5.2255    -1.9836    -0.0603 C.3     
  25 C25            5.2692    -3.4900    -0.0684 C.ar    
  26 C26            5.2769    -4.1744    -1.2693 C.ar    
  27 C27            5.3165    -5.5565    -1.2783 C.ar    
  28 C28            5.3485    -6.2551    -0.0866 C.ar    
  29 C29            5.3413    -5.5704     1.1171 C.ar    
  30 C30            5.3073    -4.1865     1.1248 C.ar    
  31 C31           -9.0940     9.1889     4.2668 C.3     
  32 O32          -10.0506    10.2507     4.3368 O.3     
  33 C33          -11.4085     9.8034     4.3440 C.3     
  34 C34          -12.3438    11.0133     4.3901 C.3     
  35 C35          -11.6496     8.9252     5.5734 C.3     
  36 F36            5.3724    -6.2524     2.2829 F       
  37 H37           -6.7346     8.2207     2.9826 H       
  38 H38            4.2249     0.4460    -0.0375 H       
  39 H39           -1.0282     3.1019    -0.4902 H       
  40 H40           -2.0585     1.6504    -0.4922 H       
  41 H41           -1.8689     1.5124     1.9763 H       
  42 H42           -0.8387     2.9639     1.9783 H       
  43 H43           -2.6842     4.2753     0.9669 H       
  44 H44           -3.7145     2.8238     0.9649 H       
  45 H45           -2.4946     4.1373     3.4355 H       
  46 H46           -3.5249     2.6858     3.4334 H       
  47 H47           -9.1721     8.9746     2.1197 H       
  48 H48          -11.0484     7.4000     2.0695 H       
  49 H49          -10.9826     7.2166     3.8407 H       
  50 H50            5.7194    -1.6010    -0.9534 H       
  51 H51            5.7378    -1.6101     0.8264 H       
  52 H52            5.2516    -3.6292    -2.2012 H       
  53 H53            5.3221    -6.0902    -2.2172 H       
  54 H54            5.3787    -7.3346    -0.0939 H       
  55 H55            5.3016    -3.6515     2.0630 H       
  56 H56           -9.1912     8.5517     5.1458 H       
  57 H57           -8.0879     9.6063     4.2262 H       
  58 H58          -12.1720    11.6390     3.5142 H       
  59 H59          -13.3791    10.6723     4.3956 H       
  60 H60          -12.1467    11.5907     5.2933 H       
  61 H61          -11.4525     9.5026     6.4767 H       
  62 H62          -12.6849     8.5842     5.5789 H       
  63 H63          -10.9833     8.0632     5.5405 H       
@<TRIPOS>BOND
   1    1    2 2
   2    1    3 1
   3    1   13 1
   4    2    5 1
   5    3    4 1
   6    4    5 2
   7    4   12 1
   8    6    7 2
   9    6   10 1
  10    6   16 1
  11    7    8 1
  12    8    9 2
  13    9   10 1
  14    9   11 1
  15   11   17 am
  16   11   37 1
  17   12   22 am
  18   12   38 1
  19   13   14 1
  20   13   39 1
  21   13   40 1
  22   14   15 1
  23   14   41 1
  24   14   42 1
  25   15   16 1
  26   15   43 1
  27   15   44 1
  28   16   45 1
  29   16   46 1
  30   17   18 2
  31   17   19 1
  32   19   20 1
  33   19   31 1
  34   19   47 1
  35   20   21 1
  36   20   48 1
  37   20   49 1
  38   21   33 1
  39   22   23 2
  40   22   24 1
  41   24   25 1
  42   24   50 1
  43   24   51 1
  44   25   26 ar
  45   25   30 ar
  46   26   27 ar
  47   26   52 1
  48   27   28 ar
  49   27   53 1
  50   28   29 ar
  51   28   54 1
  52   29   30 ar
  53   29   36 1
  54   30   55 1
  55   31   32 1
  56   31   56 1
  57   31   57 1
  58   32   33 1
  59   33   34 1
  60   33   35 1
  61   34   58 1
  62   34   59 1
  63   34   60 1
  64   35   61 1
  65   35   62 1
  66   35   63 1

#	End of record

