#	Name: ASD06170080
#	Creating user name:	WinNT
#	Creation time:	15. 06. 2019 21:05

#	Modifying user name:	WinNT
#	Modification time:	15. 06. 2019 21:05

#	Program:	/corina/corina34_cracker 3.40 0067  02.08.2006

@<TRIPOS>MOLECULE
ASD06170080
  67   71    0    0    0
SMALL
NO_CHARGES


@<TRIPOS>ATOM
   1 N1             0.0406     1.5001    -0.3777 N.pl3   
   2 N2            -0.0015     0.1159    -0.1860 N.am    
   3 C3             1.2377    -0.3113     0.1341 C.2     
   4 C4             2.1016     0.8800     0.1416 C.2     
   5 C5             1.2939     1.9525    -0.1820 C.2     
   6 C6             3.5392     0.9204     0.4357 C.2     
   7 O7             4.1365     1.9803     0.4071 O.2     
   8 N8             4.1975    -0.2162     0.7374 N.am    
   9 O9             1.5746    -1.4565     0.3705 O.2     
  10 C10            1.7400     3.3873    -0.2977 C.3     
  11 C11           -1.1072     2.3339    -0.7433 C.3     
  12 C12           -1.7040     2.9615     0.5180 C.3     
  13 C13           -2.9027     3.8323     0.1362 C.3     
  14 O14           -2.1303     1.9281     1.4083 O.3     
  15 C15           -1.1387    -0.6914    -0.3055 C.ar    
  16 C16           -2.0076    -0.5147    -1.3742 C.ar    
  17 C17           -3.1291    -1.3123    -1.4903 C.ar    
  18 C18           -3.3874    -2.2878    -0.5420 C.ar    
  19 C19           -2.5222    -2.4657     0.5245 C.ar    
  20 C20           -1.3965    -1.6740     0.6412 C.ar    
  21 F21           -4.4852    -3.0667    -0.6571 F       
  22 C22            5.5929    -0.2071     0.8544 C.ar    
  23 C23            6.2502     0.9548     1.2376 C.ar    
  24 C24            7.6276     0.9628     1.3528 C.ar    
  25 C25            8.3535    -0.1918     1.0850 C.ar    
  26 C26            7.6962    -1.3510     0.7021 C.ar    
  27 C27            6.3191    -1.3611     0.5928 C.ar    
  28 O28            9.7087    -0.1844     1.1982 O.3     
  29 N29           11.3123    -0.1299     4.9975 N.ar    
  30 C30           10.0138    -0.0424     4.8277 C.ar    
  31 C31            9.4379    -0.0565     3.5639 C.ar    
  32 C32           10.2432    -0.1667     2.4438 C.ar    
  33 C33           11.6400    -0.2607     2.6384 C.ar    
  34 C34           12.5197    -0.3744     1.5520 C.ar    
  35 C35           13.8598    -0.4626     1.7719 C.ar    
  36 C36           14.3741    -0.4414     3.0715 C.ar    
  37 C37           13.5367    -0.3312     4.1585 C.ar    
  38 C38           12.1500    -0.2382     3.9594 C.ar    
  39 O39           15.7158    -0.5309     3.2641 O.3     
  40 C40           16.5326    -0.6436     2.0970 C.3     
  41 F41            8.2681     2.0926     1.7251 F       
  42 H42            3.7048    -1.0406     0.8735 H       
  43 H43            1.6398     3.8781     0.6704 H       
  44 H44            2.7823     3.4193    -0.6151 H       
  45 H45            1.1206     3.9023    -1.0320 H       
  46 H46           -0.7820     3.1221    -1.4223 H       
  47 H47           -1.8611     1.7190    -1.2348 H       
  48 H48           -0.9501     3.5764     1.0096 H       
  49 H49           -3.6566     3.2173    -0.3553 H       
  50 H50           -3.3279     4.2793     1.0348 H       
  51 H51           -2.5776     4.6205    -0.5428 H       
  52 H52           -2.8025     1.3409     1.0362 H       
  53 H53           -1.8068     0.2462    -2.1138 H       
  54 H54           -3.8054    -1.1749    -2.3210 H       
  55 H55           -2.7254    -3.2271     1.2630 H       
  56 H56           -0.7196    -1.8161     1.4707 H       
  57 H57            5.6855     1.8517     1.4452 H       
  58 H58            8.2608    -2.2478     0.4938 H       
  59 H59            5.8075    -2.2659     0.2995 H       
  60 H60            9.3755     0.0436     5.6947 H       
  61 H61            8.3658     0.0164     3.4558 H       
  62 H62           12.1344    -0.3923     0.5432 H       
  63 H63           14.5338    -0.5504     0.9326 H       
  64 H64           13.9440    -0.3161     5.1586 H       
  65 H65           17.5802    -0.7070     2.3914 H       
  66 H66           16.2554    -1.5416     1.5449 H       
  67 H67           16.3853     0.2318     1.4645 H       
@<TRIPOS>BOND
   1    1    2 1
   2    1    5 1
   3    1   11 1
   4    2    3 am
   5    2   15 1
   6    3    4 1
   7    3    9 2
   8    4    5 2
   9    4    6 1
  10    5   10 1
  11    6    7 2
  12    6    8 am
  13    8   22 1
  14    8   42 1
  15   10   43 1
  16   10   44 1
  17   10   45 1
  18   11   12 1
  19   11   46 1
  20   11   47 1
  21   12   13 1
  22   12   14 1
  23   12   48 1
  24   13   49 1
  25   13   50 1
  26   13   51 1
  27   14   52 1
  28   15   16 ar
  29   15   20 ar
  30   16   17 ar
  31   16   53 1
  32   17   18 ar
  33   17   54 1
  34   18   19 ar
  35   18   21 1
  36   19   20 ar
  37   19   55 1
  38   20   56 1
  39   22   23 ar
  40   22   27 ar
  41   23   24 ar
  42   23   57 1
  43   24   25 ar
  44   24   41 1
  45   25   26 ar
  46   25   28 1
  47   26   27 ar
  48   26   58 1
  49   27   59 1
  50   28   32 1
  51   29   30 ar
  52   29   38 ar
  53   30   31 ar
  54   30   60 1
  55   31   32 ar
  56   31   61 1
  57   32   33 ar
  58   33   34 ar
  59   33   38 ar
  60   34   35 ar
  61   34   62 1
  62   35   36 ar
  63   35   63 1
  64   36   37 ar
  65   36   39 1
  66   37   38 ar
  67   37   64 1
  68   39   40 1
  69   40   65 1
  70   40   66 1
  71   40   67 1

#	End of record

