#	Name: ASD05430413
#	Creating user name:	WinNT
#	Creation time:	15. 06. 2019 21:00

#	Modifying user name:	WinNT
#	Modification time:	15. 06. 2019 21:00

#	Program:	/corina/corina34_cracker 3.40 0067  02.08.2006

@<TRIPOS>MOLECULE
ASD05430413
  56   60    0    0    0
SMALL
NO_CHARGES


@<TRIPOS>ATOM
   1 C1            -0.0228     1.3685     0.1728 C.ar    
   2 C2            -0.0158    -0.0185     0.3224 C.ar    
   3 C3            -1.2134    -0.7207     0.3820 C.ar    
   4 C4            -2.4136    -0.0512     0.2935 C.ar    
   5 C5            -2.4289     1.3409     0.1436 C.ar    
   6 C6            -1.2225     2.0484     0.0890 C.ar    
   7 C7            -4.8681     1.3633    -0.0474 C.2     
   8 C8            -3.7079     2.0574     0.0485 C.2     
   9 C9            -6.1953     2.0098     0.0081 C.2     
  10 O10            1.1511     2.0518     0.1150 O.3     
  11 C11            1.5488    -1.6270     1.3661 C.2     
  12 N12            1.2016    -0.7050     0.4125 N.pl3   
  13 C13            2.7993    -2.0348     1.0772 C.2     
  14 N14            3.2092    -1.3832    -0.0212 N.2     
  15 C15            2.2613    -0.5839    -0.4289 C.2     
  16 C16            3.6000    -3.0479     1.8542 C.3     
  17 N17           -7.3276     1.2306     0.1435 N.pl3   
  18 C18           -8.4571     2.1543     0.2079 C.3     
  19 C19           -7.7986     3.5147     0.0548 C.2     
  20 N20           -6.4901     3.2858    -0.0510 N.2     
  21 O21           -8.3543     4.5956     0.0325 O.2     
  22 C22           -9.4341     1.8943    -0.9405 C.3     
  23 C23           -9.1566     2.0480     1.5384 C.ar    
  24 C24          -10.2572     2.8408     1.8054 C.ar    
  25 C25           -8.7007     1.1537     2.4890 C.ar    
  26 C26           -9.3419     1.0547     3.7092 C.ar    
  27 C27          -10.4412     1.8520     3.9796 C.ar    
  28 C28          -10.8998     2.7439     3.0250 C.ar    
  29 F29          -11.0688     1.7561     5.1721 F       
  30 C30            1.0693     3.4701    -0.0391 C.3     
  31 O31           -4.9091    -0.0026    -0.2107 O.3     
  32 C32           -5.8882    -0.6855     0.5834 C.3     
  33 C33           -7.2997    -0.2298     0.1833 C.3     
  34 H34           -1.2029    -1.7945     0.4975 H       
  35 H35           -3.3428    -0.5997     0.3393 H       
  36 H36           -1.2293     3.1222    -0.0262 H       
  37 H37           -3.7237     3.1373     0.0549 H       
  38 H38            0.9384    -1.9590     2.1928 H       
  39 H39            2.3110     0.0649    -1.2908 H       
  40 H40            3.4120    -4.0441     1.4537 H       
  41 H41            4.6614    -2.8158     1.7676 H       
  42 H42            3.3056    -3.0165     2.9032 H       
  43 H43           -9.8098     0.8733    -0.8738 H       
  44 H44          -10.2678     2.5933    -0.8734 H       
  45 H45           -8.9208     2.0312    -1.8923 H       
  46 H46          -10.6148     3.5364     1.0606 H       
  47 H47           -7.8432     0.5319     2.2778 H       
  48 H48           -8.9860     0.3555     4.4513 H       
  49 H49          -11.7569     3.3665     3.2350 H       
  50 H50            0.5475     3.7053    -0.9668 H       
  51 H51            0.5235     3.8962     0.8028 H       
  52 H52            2.0743     3.8907    -0.0709 H       
  53 H53           -5.7958    -1.7601     0.4263 H       
  54 H54           -5.7211    -0.4598     1.6366 H       
  55 H55           -8.0223    -0.5930     0.9141 H       
  56 H56           -7.5448    -0.6225    -0.8036 H       
@<TRIPOS>BOND
   1    1    2 ar
   2    1   10 1
   3    1    6 ar
   4    2    3 ar
   5    2   12 1
   6    3    4 ar
   7    3   34 1
   8    4    5 ar
   9    4   35 1
  10    5    6 ar
  11    5    8 1
  12    6   36 1
  13    7    8 2
  14    7   31 1
  15    7    9 1
  16    8   37 1
  17    9   17 1
  18    9   20 2
  19   10   30 1
  20   11   12 1
  21   11   13 2
  22   11   38 1
  23   12   15 1
  24   13   14 1
  25   13   16 1
  26   14   15 2
  27   15   39 1
  28   16   40 1
  29   16   41 1
  30   16   42 1
  31   17   18 1
  32   17   33 1
  33   18   19 1
  34   18   23 1
  35   18   22 1
  36   19   20 1
  37   19   21 2
  38   22   43 1
  39   22   44 1
  40   22   45 1
  41   23   24 ar
  42   23   25 ar
  43   24   28 ar
  44   24   46 1
  45   25   26 ar
  46   25   47 1
  47   26   27 ar
  48   26   48 1
  49   27   28 ar
  50   27   29 1
  51   28   49 1
  52   30   50 1
  53   30   51 1
  54   30   52 1
  55   31   32 1
  56   32   33 1
  57   32   53 1
  58   32   54 1
  59   33   55 1
  60   33   56 1

#	End of record

