#	Name: ASD03240573
#	Creating user name:	WinNT
#	Creation time:	15. 06. 2019 20:35

#	Modifying user name:	WinNT
#	Modification time:	15. 06. 2019 20:35

#	Program:	/corina/corina34_cracker 3.40 0067  02.08.2006

@<TRIPOS>MOLECULE
ASD03240573
  63   69    0    0    0
SMALL
NO_CHARGES


@<TRIPOS>ATOM
   1 C1            -0.0166     1.3755     0.0096 C.ar    
   2 C2             0.0021    -0.0041     0.0020 C.ar    
   3 N3             1.1422    -0.6683    -0.0054 N.ar    
   4 C4             2.3145    -0.0481    -0.0053 C.ar    
   5 C5             2.3702     1.3442    -0.0124 C.ar    
   6 C6             1.1860     2.0698     0.0019 C.ar    
   7 N7             3.4819    -0.8058     0.0229 N.pl3   
   8 C8             4.3591    -0.7189     1.1005 C.ar    
   9 C9             4.9949     0.4896     1.4041 C.ar    
  10 C10            4.7632     1.6838     0.5620 C.2     
  11 N11            3.5939     2.0276    -0.0512 N.pl3   
  12 C12            4.6052    -1.8384     1.8842 C.ar    
  13 C13            5.4650    -1.7526     2.9625 C.ar    
  14 C14            6.0854    -0.5543     3.2711 C.ar    
  15 C15            5.8558     0.5664     2.4986 C.ar    
  16 N16            5.6744     2.5942     0.2848 N.2     
  17 C17            5.1433     3.5398    -0.5062 C.2     
  18 C18            3.8216     3.2027    -0.7364 C.2     
  19 C19            2.8477     3.9518    -1.5540 C.ar    
  20 C20            2.7477     5.3397    -1.4300 C.ar    
  21 C21            2.0256     3.2771    -2.4597 C.ar    
  22 C22            1.1180     3.9837    -3.2208 C.ar    
  23 C23            1.0207     5.3578    -3.0889 C.ar    
  24 C24            1.8356     6.0334    -2.1976 C.ar    
  25 C25            5.8461     4.7301    -1.0365 C.ar    
  26 C26            0.0270     6.1229    -3.9245 C.3     
  27 N27           -1.0513     5.2738    -4.4483 N.3     
  28 C28           -0.4749     7.4139    -3.2565 C.3     
  29 C29           -0.3886     8.0719    -4.6438 C.3     
  30 C30            0.6791     7.0185    -4.9910 C.3     
  31 C31            5.5525     5.2298    -2.3121 C.ar    
  32 C32            6.8156     5.3885    -0.2761 C.ar    
  33 C33            7.4486     6.4991    -0.8121 C.ar    
  34 N34            7.1428     6.9332    -2.0243 N.ar    
  35 C35            6.2284     6.3394    -2.7695 C.ar    
  36 O36            8.3924     7.1490    -0.0853 O.3     
  37 C37            9.0090     8.2865    -0.6918 C.3     
  38 H38           -0.9556     1.9091     0.0170 H       
  39 H39           -0.9306    -0.5486     0.0025 H       
  40 H40            1.2002     3.1497     0.0068 H       
  41 H41            3.6865    -1.4001    -0.7160 H       
  42 H42            4.1241    -2.7768     1.6510 H       
  43 H43            5.6539    -2.6262     3.5688 H       
  44 H44            6.7518    -0.4960     4.1190 H       
  45 H45            6.3412     1.5001     2.7413 H       
  46 H46            3.3828     5.8682    -0.7344 H       
  47 H47            2.1007     2.2048    -2.5639 H       
  48 H48            0.4820     3.4635    -3.9217 H       
  49 H49            1.7541     7.1058    -2.0995 H       
  50 H50           -0.6779     4.4519    -4.8989 H       
  51 H51           -1.7006     5.0223    -3.7180 H       
  52 H52           -1.4917     7.3393    -2.8711 H       
  53 H53            0.2242     7.8306    -2.5314 H       
  54 H54           -1.3022     7.9755    -5.2303 H       
  55 H55           -0.0053     9.0920    -4.6201 H       
  56 H56            1.6941     7.3265    -4.7403 H       
  57 H57            0.5926     6.6268    -6.0046 H       
  58 H58            4.8064     4.7510    -2.9288 H       
  59 H59            7.0676     5.0380     0.7139 H       
  60 H60            6.0100     6.7272    -3.7535 H       
  61 H61            9.7420     8.7113    -0.0060 H       
  62 H62            9.5066     7.9822    -1.6127 H       
  63 H63            8.2487     9.0337    -0.9195 H       
@<TRIPOS>BOND
   1    1    2 ar
   2    1    6 ar
   3    1   38 1
   4    2    3 ar
   5    2   39 1
   6    3    4 ar
   7    4    5 ar
   8    4    7 1
   9    5    6 ar
  10    5   11 1
  11    6   40 1
  12    7    8 1
  13    7   41 1
  14    8    9 ar
  15    8   12 ar
  16    9   10 1
  17    9   15 ar
  18   10   11 1
  19   10   16 2
  20   11   18 1
  21   12   13 ar
  22   12   42 1
  23   13   14 ar
  24   13   43 1
  25   14   15 ar
  26   14   44 1
  27   15   45 1
  28   16   17 1
  29   17   18 2
  30   17   25 1
  31   18   19 1
  32   19   20 ar
  33   19   21 ar
  34   20   24 ar
  35   20   46 1
  36   21   22 ar
  37   21   47 1
  38   22   23 ar
  39   22   48 1
  40   23   24 ar
  41   23   26 1
  42   24   49 1
  43   25   31 ar
  44   25   32 ar
  45   26   27 1
  46   26   28 1
  47   26   30 1
  48   27   50 1
  49   27   51 1
  50   28   29 1
  51   28   52 1
  52   28   53 1
  53   29   30 1
  54   29   54 1
  55   29   55 1
  56   30   56 1
  57   30   57 1
  58   31   35 ar
  59   31   58 1
  60   32   33 ar
  61   32   59 1
  62   33   34 ar
  63   33   36 1
  64   34   35 ar
  65   35   60 1
  66   36   37 1
  67   37   61 1
  68   37   62 1
  69   37   63 1

#	End of record

