#	Name: ASD01180063
#	Creating user name:	WinNT
#	Creation time:	15. 06. 2019 19:06

#	Modifying user name:	WinNT
#	Modification time:	15. 06. 2019 19:06

#	Program:	/corina/corina34_cracker 3.40 0067  02.08.2006

@<TRIPOS>MOLECULE
ASD01180063
  31   31    0    0    0
SMALL
NO_CHARGES


@<TRIPOS>ATOM
   1 C1            -0.0180     1.4730     0.0101 C.2     
   2 C2             0.0021    -0.0041     0.0020 C.ar    
   3 C3             1.2188    -0.6888    -0.0133 C.ar    
   4 C4             1.2303    -2.0682    -0.0203 C.ar    
   5 C5             0.0396    -2.7731    -0.0127 C.ar    
   6 C6            -1.1697    -2.1009     0.0020 C.ar    
   7 C7            -1.1956    -0.7217     0.0154 C.ar    
   8 O8             1.0256     2.0946     0.0035 O.2     
   9 O9            -1.1936     2.1307     0.0193 O.3     
  10 C10            0.0601    -4.2800    -0.0210 C.3     
  11 C11           -0.0724    -4.7839    -1.4595 C.3     
  12 C12            0.0732    -6.3068    -1.4818 C.3     
  13 C13           -0.0593    -6.8108    -2.9204 C.3     
  14 O14           -1.0296    -4.7754     0.7596 O.3     
  15 C15           -1.1373     3.5816     0.0269 C.3     
  16 H16            2.1488    -0.1398    -0.0199 H       
  17 H17            2.1707    -2.5992    -0.0321 H       
  18 H18           -2.0953    -2.6572     0.0071 H       
  19 H19           -2.1401    -0.1983     0.0318 H       
  20 H20            1.0004    -4.6329     0.4025 H       
  21 H21           -1.0504    -4.5067    -1.8530 H       
  22 H22            0.7073    -4.3353    -2.0749 H       
  23 H23            1.0511    -6.5841    -1.0883 H       
  24 H24           -0.7066    -6.7555    -0.8664 H       
  25 H25           -1.0373    -6.5335    -3.3138 H       
  26 H26            0.7204    -6.3622    -3.5358 H       
  27 H27            0.0444    -7.8957    -2.9363 H       
  28 H28           -1.8996    -4.5001     0.4398 H       
  29 H29           -2.1501     3.9844     0.0339 H       
  30 H30           -0.6055     3.9199     0.9162 H       
  31 H31           -0.6140     3.9295    -0.8637 H       
@<TRIPOS>BOND
   1    1    2 1
   2    1    8 2
   3    1    9 1
   4    2    3 ar
   5    2    7 ar
   6    3    4 ar
   7    3   16 1
   8    4    5 ar
   9    4   17 1
  10    5    6 ar
  11    5   10 1
  12    6    7 ar
  13    6   18 1
  14    7   19 1
  15    9   15 1
  16   10   11 1
  17   10   14 1
  18   10   20 1
  19   11   12 1
  20   11   21 1
  21   11   22 1
  22   12   13 1
  23   12   23 1
  24   12   24 1
  25   13   25 1
  26   13   26 1
  27   13   27 1
  28   14   28 1
  29   15   29 1
  30   15   30 1
  31   15   31 1

#	End of record

