#	Name: ASD01708042
#	Creating user name:	WinNT
#	Creation time:	15. 06. 2019 19:22

#	Modifying user name:	WinNT
#	Modification time:	15. 06. 2019 19:22

#	Program:	/corina/corina34_cracker 3.40 0067  02.08.2006

@<TRIPOS>MOLECULE
ASD01708042
  57   60    0    0    0
SMALL
NO_CHARGES


@<TRIPOS>ATOM
   1 C1            -0.0162     1.3436     0.0094 C.2     
   2 N2            -0.0663     0.0311     0.3118 N.am    
   3 O3             1.0501     1.8665    -0.2562 O.2     
   4 C4             1.1231    -0.8285     0.1919 C.3     
   5 C5            -1.3062    -0.5973     0.7795 C.3     
   6 C6            -1.0082    -1.5004     1.9508 C.ar    
   7 C7             0.2785    -1.8384     2.3109 C.ar    
   8 C8             1.4882    -1.3219     1.5909 C.3     
   9 C9            -2.0872    -1.9952     2.6737 C.ar    
  10 C10           -1.8896    -2.8317     3.7506 C.ar    
  11 C11           -0.5885    -3.1864     4.1180 C.ar    
  12 C12            0.4902    -2.6844     3.3915 C.ar    
  13 Cl13           2.1094    -3.1204     3.8405 Cl      
  14 Cl14          -3.2471    -3.4404     4.6453 Cl      
  15 C15           -0.3583    -4.0858     5.2667 C.2     
  16 N16           -0.2029    -3.5732     6.5034 N.am    
  17 O17           -0.3090    -5.2886     5.0966 O.2     
  18 C18            0.0255    -4.4653     7.6428 C.3     
  19 C19           -1.2984    -4.9563     8.1695 C.2     
  20 O20           -1.3348    -5.7919     9.2194 O.3     
  21 O21           -2.3270    -4.5978     7.6468 O.2     
  22 C22           -1.2469     2.1397    -0.0054 C.2     
  23 C23            0.7630    -3.7045     8.7464 C.3     
  24 N24            1.9938    -3.1257     8.2020 N.am    
  25 C25            2.8100    -2.4069     8.9979 C.2     
  26 S26           -2.8764     1.4961    -0.1536 S.3     
  27 C27           -3.5518     3.0609    -0.0752 C.2     
  28 C28           -2.5962     3.9887     0.0538 C.2     
  29 C29           -1.3119     3.5006     0.0997 C.2     
  30 C30           -5.0276     3.3585    -0.1427 C.3     
  31 O31            2.5247    -2.2387    10.1690 O.2     
  32 C32            4.0414    -1.8278     8.4531 C.2     
  33 S33            4.5911    -1.9796     6.7898 S.3     
  34 C34            4.9432    -1.0785     9.1550 C.2     
  35 C35            6.0105    -0.6606     8.3961 C.2     
  36 C36            5.9847    -1.0509     7.1164 C.2     
  37 H37            0.9001    -1.6789    -0.4526 H       
  38 H38            1.9515    -0.2559    -0.2252 H       
  39 H39           -2.0107     0.1753     1.0873 H       
  40 H40           -1.7427    -1.1840    -0.0288 H       
  41 H41            2.2218    -2.1231     1.5022 H       
  42 H42            1.9221    -0.5013     2.1622 H       
  43 H43           -3.0919    -1.7206     2.3884 H       
  44 H44           -0.2422    -2.6135     6.6391 H       
  45 H45            0.6274    -5.3160     7.3232 H       
  46 H46           -2.2071    -6.0797     9.5214 H       
  47 H47            0.1244    -2.9077     9.1276 H       
  48 H48            1.0114    -4.3901     9.5567 H       
  49 H49            2.2212    -3.2598     7.2686 H       
  50 H50           -2.8179     5.0436     0.1208 H       
  51 H51           -0.4406     4.1305     0.2018 H       
  52 H52           -5.5819     2.4259    -0.2475 H       
  53 H53           -5.3382     3.8651     0.7711 H       
  54 H54           -5.2301     3.9999    -1.0004 H       
  55 H55            4.8285    -0.8382    10.2017 H       
  56 H56            6.8104    -0.0593     8.8025 H       
  57 H57            6.7441    -0.8096     6.3874 H       
@<TRIPOS>BOND
   1    1    2 am
   2    1    3 2
   3    1   22 1
   4    2    4 1
   5    2    5 1
   6    4    8 1
   7    4   37 1
   8    4   38 1
   9    5    6 1
  10    5   39 1
  11    5   40 1
  12    6    7 ar
  13    6    9 ar
  14    7    8 1
  15    7   12 ar
  16    8   41 1
  17    8   42 1
  18    9   10 ar
  19    9   43 1
  20   10   11 ar
  21   10   14 1
  22   11   12 ar
  23   11   15 1
  24   12   13 1
  25   15   16 am
  26   15   17 2
  27   16   18 1
  28   16   44 1
  29   18   19 1
  30   18   23 1
  31   18   45 1
  32   19   20 1
  33   19   21 2
  34   20   46 1
  35   22   26 1
  36   22   29 2
  37   23   24 1
  38   23   47 1
  39   23   48 1
  40   24   25 am
  41   24   49 1
  42   25   31 2
  43   25   32 1
  44   26   27 1
  45   27   28 2
  46   27   30 1
  47   28   29 1
  48   28   50 1
  49   29   51 1
  50   30   52 1
  51   30   53 1
  52   30   54 1
  53   32   33 1
  54   32   34 2
  55   33   36 1
  56   34   35 1
  57   34   55 1
  58   35   36 2
  59   35   56 1
  60   36   57 1

#	End of record

