#	Name: ASD00431142
#	Creating user name:	WinNT
#	Creation time:	15. 06. 2019 18:35

#	Modifying user name:	WinNT
#	Modification time:	15. 06. 2019 18:35

#	Program:	/corina/corina34_cracker 3.40 0067  02.08.2006

@<TRIPOS>MOLECULE
ASD00431142
  51   54    0    0    0
SMALL
NO_CHARGES


@<TRIPOS>ATOM
   1 N1             0.2292     1.8237    -0.7974 N.am    
   2 C2            -0.0328     0.5017    -0.7836 C.2     
   3 O3             0.8313    -0.2858    -0.4495 O.2     
   4 N4            -1.2525     0.0526    -1.1401 N.am    
   5 C5            -1.5372    -1.3844    -1.1251 C.3     
   6 C6             1.5550     2.3118    -0.4099 C.3     
   7 C7             2.4902     2.2628    -1.6198 C.3     
   8 O8             0.6741     4.7001    -0.4374 O.3     
   9 N9             0.7897     5.7409     0.1669 N.2     
  10 C10            1.6386     5.6241     1.1617 C.2     
  11 C11            2.0988     4.2755     1.1308 C.2     
  12 C12            1.4435     3.7320     0.0816 C.2     
  13 S13            3.1804     6.4929     3.4455 S.3     
  14 C14            2.9497     8.1285     3.8856 C.2     
  15 N15            2.0976     8.6939     3.0869 N.2     
  16 C16            1.5881     7.9495     2.1301 C.2     
  17 C17            2.0362     6.6767     2.1184 C.2     
  18 O18            3.5675     8.7459     4.9205 O.3     
  19 C19            3.1688    10.0055     5.2425 C.ar    
  20 C20            3.8884    10.7456     6.1712 C.ar    
  21 C21            3.4830    12.0256     6.4976 C.ar    
  22 C22            2.3574    12.5707     5.8974 C.ar    
  23 C23            1.6387    11.8310     4.9702 C.ar    
  24 C24            2.0468    10.5532     4.6392 C.ar    
  25 O25            1.9584    13.8303     6.2185 O.3     
  26 C26            0.7908    14.3281     5.5620 C.3     
  27 C27            0.4995    15.7495     6.0477 C.3     
  28 C28           -0.6482    16.5047     5.3746 C.3     
  29 C29           -0.8099    15.9832     6.8039 C.3     
  30 Cl30           5.2967    10.0627     6.9224 Cl      
  31 H31           -0.4589     2.4516    -1.0678 H       
  32 H32           -1.9418     0.6809    -1.4066 H       
  33 H33           -2.5664    -1.5541    -1.4413 H       
  34 H34           -0.8584    -1.8964    -1.8070 H       
  35 H35           -1.3987    -1.7717    -0.1156 H       
  36 H36            1.9558     1.6827     0.3849 H       
  37 H37            2.0894     2.8919    -2.4146 H       
  38 H38            3.4766     2.6260    -1.3315 H       
  39 H39            2.5708     1.2356    -1.9753 H       
  40 H40            2.8072     3.7988     1.7921 H       
  41 H41            0.8714     8.3249     1.4146 H       
  42 H42            4.0422    12.6015     7.2201 H       
  43 H43            0.7620    12.2555     4.5037 H       
  44 H44            1.4896     9.9794     3.9136 H       
  45 H45            0.9564    14.3391     4.4847 H       
  46 H46           -0.0580    13.6843     5.7926 H       
  47 H47            1.3699    16.3282     6.3570 H       
  48 H48           -0.5331    17.5804     5.2414 H       
  49 H49           -1.1958    15.9891     4.5857 H       
  50 H50           -1.4638    15.1245     6.9553 H       
  51 H51           -0.8011    16.7158     7.6109 H       
@<TRIPOS>BOND
   1    1    2 am
   2    1    6 1
   3    1   31 1
   4    2    3 2
   5    2    4 am
   6    4    5 1
   7    4   32 1
   8    5   33 1
   9    5   34 1
  10    5   35 1
  11    6    7 1
  12    6   12 1
  13    6   36 1
  14    7   37 1
  15    7   38 1
  16    7   39 1
  17    8    9 1
  18    8   12 1
  19    9   10 2
  20   10   11 1
  21   10   17 1
  22   11   12 2
  23   11   40 1
  24   13   14 1
  25   13   17 1
  26   14   15 2
  27   14   18 1
  28   15   16 1
  29   16   17 2
  30   16   41 1
  31   18   19 1
  32   19   20 ar
  33   19   24 ar
  34   20   21 ar
  35   20   30 1
  36   21   22 ar
  37   21   42 1
  38   22   23 ar
  39   22   25 1
  40   23   24 ar
  41   23   43 1
  42   24   44 1
  43   25   26 1
  44   26   27 1
  45   26   45 1
  46   26   46 1
  47   27   28 1
  48   27   29 1
  49   27   47 1
  50   28   29 1
  51   28   48 1
  52   28   49 1
  53   29   50 1
  54   29   51 1

#	End of record

