#	Name: ASD02590026
#	Creating user name:	WinNT
#	Creation time:	15. 06. 2019 20:25

#	Modifying user name:	WinNT
#	Modification time:	15. 06. 2019 20:25

#	Program:	/corina/corina34_cracker 3.40 0067  02.08.2006

@<TRIPOS>MOLECULE
ASD02590026
  32   34    0    0    0
SMALL
NO_CHARGES


@<TRIPOS>ATOM
   1 C1            -0.0171     1.3902     0.0171 C.ar    
   2 C2             0.0008    -0.0033    -0.0102 C.ar    
   3 C3            -1.1782    -0.7164     0.0039 C.ar    
   4 C4            -2.3929    -0.0462     0.0459 C.ar    
   5 C5            -2.4208     1.3599     0.0742 C.ar    
   6 C6            -1.2174     2.0730     0.0648 C.ar    
   7 N7            -3.7124    -0.4575     0.0692 N.pl3   
   8 C8            -4.4867     0.6699     0.1098 C.2     
   9 N9            -3.7221     1.7337     0.1125 N.2     
  10 C10           -5.9661     0.6853     0.1448 C.ar    
  11 C11           -6.6441     1.9027     0.1849 C.ar    
  12 C12           -8.0285     1.9007     0.2174 C.ar    
  13 C13           -8.6893     0.6812     0.2087 C.ar    
  14 C14           -7.9528    -0.4900     0.1682 C.ar    
  15 N15           -6.6372    -0.4605     0.1324 N.ar    
  16 N16            1.1876     2.1016     0.0020 N.pl3   
  17 C17            2.4625     1.3851     0.0888 C.3     
  18 C18            1.1741     3.5629    -0.1006 C.3     
  19 H19            0.9446    -0.5273    -0.0429 H       
  20 H20           -1.1570    -1.7960    -0.0182 H       
  21 H21           -1.2267     3.1528     0.0867 H       
  22 H22           -4.0301    -1.3740     0.0588 H       
  23 H23           -6.0975     2.8341     0.1909 H       
  24 H24           -8.5813     2.8280     0.2491 H       
  25 H25           -9.7684     0.6458     0.2337 H       
  26 H26           -8.4645    -1.4410     0.1617 H       
  27 H27            2.8081     1.1357    -0.9145 H       
  28 H28            3.2017     2.0171     0.5811 H       
  29 H29            2.3263     0.4695     0.6642 H       
  30 H30            0.1508     3.9072    -0.2503 H       
  31 H31            1.5723     3.9953     0.8173 H       
  32 H32            1.7891     3.8735    -0.9452 H       
@<TRIPOS>BOND
   1    1    2 ar
   2    1   16 1
   3    1    6 ar
   4    2    3 ar
   5    2   19 1
   6    3    4 ar
   7    3   20 1
   8    4    5 ar
   9    4    7 1
  10    5    6 ar
  11    5    9 1
  12    6   21 1
  13    7    8 1
  14    7   22 1
  15    8    9 2
  16    8   10 1
  17   10   11 ar
  18   10   15 ar
  19   11   12 ar
  20   11   23 1
  21   12   13 ar
  22   12   24 1
  23   13   14 ar
  24   13   25 1
  25   14   15 ar
  26   14   26 1
  27   16   17 1
  28   16   18 1
  29   17   27 1
  30   17   28 1
  31   17   29 1
  32   18   30 1
  33   18   31 1
  34   18   32 1

#	End of record

