#	Name: ASD06590067
#	Creating user name:	WinNT
#	Creation time:	15. 06. 2019 21:06

#	Modifying user name:	WinNT
#	Modification time:	15. 06. 2019 21:06

#	Program:	/corina/corina34_cracker 3.40 0067  02.08.2006

@<TRIPOS>MOLECULE
ASD06590067
 301  303    0    0    0
SMALL
NO_CHARGES


@<TRIPOS>ATOM
   1 C1             1.1972     4.9318    -5.9216 C.2     
   2 O2             1.4295     3.7462    -6.0269 O.2     
   3 N3             3.4891     5.2431    -6.6560 N.am    
   4 C4             2.2690     5.9412    -6.2432 C.3     
   5 C5             1.7913     6.8481    -7.3790 C.3     
   6 O6             1.4082     6.0474    -8.4989 O.3     
   7 C7            -2.4200     5.0003    -5.3976 C.2     
   8 O8            -2.5052     6.1580    -5.7490 O.2     
   9 N9            -0.0214     5.3469    -5.5224 N.am    
  10 C10           -1.0652     4.3659    -5.2156 C.3     
  11 C11           -0.9129     3.8950    -3.7679 C.3     
  12 C12            0.4093     3.1409    -3.6133 C.3     
  13 C13            0.5616     2.6700    -2.1655 C.3     
  14 N14            1.8276     1.9479    -2.0175 N.pl3   
  15 C15            2.1836     1.4279    -0.7956 C.2     
  16 N16            3.3100     0.7855    -0.6639 N.2     
  17 N17            1.3515     1.5855     0.2874 N.pl3   
  18 C18           -5.8648     4.1779    -4.4921 C.2     
  19 O19           -5.5191     3.2417    -3.8029 O.2     
  20 N20           -3.5369     4.2813    -5.1699 N.am    
  21 C21           -4.8539     4.8980    -5.3469 C.3     
  22 C22           -5.2685     4.8026    -6.8166 C.3     
  23 C23           -4.3269     5.6247    -7.6584 C.2     
  24 C24           -4.5128     6.8929    -8.0573 C.2     
  25 N25           -3.4456     7.3075    -8.8066 N.pl3   
  26 C26           -2.5235     6.2903    -8.9110 C.ar    
  27 C27           -1.2895     6.1775    -9.5428 C.ar    
  28 C28           -0.5849     4.9962    -9.4621 C.ar    
  29 C29           -1.0938     3.9152    -8.7559 C.ar    
  30 C30           -2.3044     4.0041    -8.1280 C.ar    
  31 C31           -3.0323     5.1935    -8.1914 C.ar    
  32 C32           -9.5104     4.0504    -4.2542 C.2     
  33 O33           -9.6550     4.6971    -5.2700 O.2     
  34 N34           -7.1530     4.5743    -4.4934 N.am    
  35 C35           -8.1356     3.8743    -3.6625 C.3     
  36 C36           -8.1117     4.4539    -2.2467 C.3     
  37 C37           -6.6870     4.3882    -1.6928 C.3     
  38 O38           -8.5469     5.8145    -2.2816 O.3     
  39 C39          -12.9210     3.6333    -3.0349 C.2     
  40 O40          -12.6561     2.9564    -2.0640 O.2     
  41 N41          -10.5791     3.4894    -3.6545 N.am    
  42 C42          -11.9274     3.7566    -4.1613 C.3     
  43 C43          -12.2703     2.7450    -5.2568 C.3     
  44 C44          -13.6051     3.1240    -5.9013 C.3     
  45 C45          -13.4610     4.4665    -6.6209 C.3     
  46 C46          -14.0091     2.0460    -6.9091 C.3     
  47 C47          -16.4796     4.3584    -2.6183 C.2     
  48 O48          -16.6050     4.6898    -3.7782 O.2     
  49 N49          -14.1039     4.2752    -3.1065 N.am    
  50 C50          -15.1087     4.0783    -2.0587 C.3     
  51 C51          -14.8274     5.0330    -0.8966 C.3     
  52 C52          -19.8257     4.9147    -1.2555 C.2     
  53 O53          -19.4135     4.9684    -0.1161 O.2     
  54 N54          -17.5663     4.2406    -1.8299 N.am    
  55 C55          -18.8990     4.5129    -2.3739 C.3     
  56 C56          -19.4385     3.2540    -3.0558 C.3     
  57 C57          -18.5675     2.9174    -4.2678 C.3     
  58 C58          -19.0300     1.5917    -4.8758 C.3     
  59 C59          -18.6944     4.0289    -5.3115 C.3     
  60 C60          -22.7705     4.5559     0.1237 C.2     
  61 O61          -22.6153     3.4358    -0.3146 O.2     
  62 N62          -21.1125     5.2145    -1.5214 N.am    
  63 C63          -21.9859     5.7061    -0.4529 C.3     
  64 C64          -22.9515     6.7475    -1.0222 C.3     
  65 C65          -22.1747     7.9539    -1.4831 C.2     
  66 O66          -20.9862     8.0222    -1.2764 O.2     
  67 O67          -22.8031     8.9524    -2.1232 O.3     
  68 C68          -25.6824     4.1728     2.3003 C.2     
  69 O69          -25.9297     5.3598     2.2717 O.2     
  70 N70          -23.6446     4.7720     1.1266 N.am    
  71 C71          -24.4073     3.6539     1.6872 C.3     
  72 C72          -23.5722     2.9550     2.7620 C.3     
  73 C73          -22.3571     2.3299     2.1266 C.ar    
  74 C74          -21.1852     3.0546     2.0154 C.ar    
  75 C75          -20.0706     2.4813     1.4324 C.ar    
  76 C76          -20.1278     1.1830     0.9611 C.ar    
  77 C77          -21.2994     0.4580     1.0731 C.ar    
  78 C78          -22.4127     1.0298     1.6600 C.ar    
  79 C79          -28.2567     2.8675     4.5435 C.2     
  80 O80          -27.6185     1.8643     4.7827 O.2     
  81 N81          -26.5479     3.3179     2.8803 N.am    
  82 C82          -27.7875     3.8224     3.4762 C.3     
  83 C83          -28.8613     3.9444     2.3932 C.3     
  84 C84          -28.4404     5.0060     1.3750 C.3     
  85 C85          -29.5142     5.1280     0.2919 C.3     
  86 C86          -29.0933     6.1896    -0.7263 C.3     
  87 N87          -30.1242     6.3067    -1.7661 N.3     
  88 C88          -31.3314     2.3395     6.4488 C.2     
  89 O89          -31.9512     3.1360     5.7761 O.2     
  90 N90          -29.3855     3.1283     5.2321 N.am    
  91 C91          -29.8416     2.2000     6.2696 C.3     
  92 C92          -29.1369     2.5231     7.5886 C.3     
  93 C93          -27.6365     2.2614     7.4426 C.3     
  94 C94          -26.9317     2.5845     8.7616 C.3     
  95 N95          -25.4951     2.3339     8.6218 N.pl3   
  96 C96          -24.6520     2.5550     9.6851 C.2     
  97 N97          -25.1310     2.9875    10.8175 N.2     
  98 N98          -23.3038     2.3199     9.5538 N.pl3   
  99 C99          -33.8054     1.2762     8.9210 C.2     
 100 O100         -32.9519     0.8883     9.6905 O.2     
 101 N101         -31.9751     1.5793     7.3566 N.am    
 102 C102         -33.4234     1.7149     7.5308 C.3     
 103 C103         -34.1448     0.8401     6.5036 C.3     
 104 C104         -33.8557     1.3634     5.0953 C.3     
 105 C105         -34.5771     0.4885     4.0681 C.3     
 106 C106         -34.2880     1.0119     2.6597 C.3     
 107 N107         -34.9806     0.1719     1.6735 N.3     
 108 C108         -36.9054     0.4393    10.6682 C.2     
 109 O109         -37.5564     0.4725     9.6454 O.2     
 110 N110         -35.0955     1.3147     9.3092 N.am    
 111 C111         -35.4669     0.8882    10.6606 C.3     
 112 C112         -35.2926     2.0585    11.6307 C.3     
 113 C113         -39.7654     0.7604    12.0043 C.2     
 114 O114         -39.2866     1.8639    12.1186 O.2     
 115 N115         -37.4686     0.0011    11.8115 N.am    
 116 C116         -38.8671    -0.4352    11.8189 C.3     
 117 C117         -39.0875    -1.4218    12.9674 C.3     
 118 C118         -38.2692    -2.6896    12.7148 C.3     
 119 C119         -38.4897    -3.6762    13.8633 C.3     
 120 N120         -37.7061    -4.8902    13.6214 N.pl3   
 121 C121         -37.7456    -5.9253    14.5254 C.2     
 122 N122         -37.0485    -7.0054    14.3102 N.2     
 123 N123         -38.5203    -5.8211    15.6563 N.pl3   
 124 O124         -41.0975     0.5996    12.0425 O.3     
 125 C125           4.6888     5.8398    -6.5107 C.2     
 126 O126           4.7584     6.9547    -6.0383 O.2     
 127 C127          23.3601     6.2574    -8.0596 C.3     
 128 C128          22.0859     6.9865    -7.6285 C.3     
 129 C129          20.8720     6.0952    -7.8990 C.3     
 130 C130          19.5978     6.8242    -7.4679 C.3     
 131 C131          18.3840     5.9329    -7.7384 C.3     
 132 C132          17.1098     6.6620    -7.3073 C.3     
 133 C133          15.8960     5.7707    -7.5778 C.3     
 134 C134          14.6218     6.4997    -7.1467 C.3     
 135 C135          13.4079     5.6085    -7.4171 C.3     
 136 C136          12.1337     6.3375    -6.9861 C.3     
 137 C137          10.9199     5.4462    -7.2565 C.3     
 138 C138           9.6457     6.1753    -6.8255 C.3     
 139 C139           8.4319     5.2840    -7.0959 C.3     
 140 C140           7.1577     6.0130    -6.6648 C.3     
 141 C141           5.9439     5.1217    -6.9353 C.3     
 142 H142           3.4335     4.3515    -7.0338 H       
 143 H143           2.4769     6.5444    -5.3595 H       
 144 H144           0.9360     7.4334    -7.0413 H       
 145 H145           2.5984     7.5197    -7.6716 H       
 146 H146           1.0940     6.5575    -9.2580 H       
 147 H147          -0.2072     6.2952    -5.4382 H       
 148 H148          -0.9705     3.5125    -5.8871 H       
 149 H149          -0.9188     4.7583    -3.1025 H       
 150 H150          -1.7406     3.2334    -3.5120 H       
 151 H151           0.4151     2.2775    -4.2787 H       
 152 H152           1.2369     3.8024    -3.8691 H       
 153 H153           0.5557     3.5333    -1.5001 H       
 154 H154          -0.2661     2.0084    -1.9097 H       
 155 H155           2.4148     1.8367    -2.7816 H       
 156 H156           3.5612     0.4186     0.1982 H       
 157 H157           0.5132     2.0636     0.1894 H       
 158 H158           1.6026     1.2186     1.1495 H       
 159 H159          -3.4688     3.3554    -4.8889 H       
 160 H160          -4.8074     5.9457    -5.0498 H       
 161 H161          -5.2291     3.7620    -7.1384 H       
 162 H162          -6.2841     5.1808    -6.9329 H       
 163 H163          -5.3768     7.4965    -7.8218 H       
 164 H164          -3.3525     8.1870    -9.2050 H       
 165 H165          -0.8852     7.0130   -10.0950 H       
 166 H166           0.3729     4.9104    -9.9536 H       
 167 H167          -0.5288     2.9964    -8.7024 H       
 168 H168          -2.6943     3.1586    -7.5806 H       
 169 H169          -7.4294     5.3231    -5.0446 H       
 170 H170          -7.8895     2.8131    -3.6248 H       
 171 H171          -8.7776     3.8757    -1.6061 H       
 172 H172          -6.0210     4.9663    -2.3334 H       
 173 H173          -6.6699     4.8011    -0.6842 H       
 174 H174          -6.3550     3.3503    -1.6662 H       
 175 H175          -8.5569     6.2466    -1.4166 H       
 176 H176         -10.4555     2.9088    -2.8874 H       
 177 H177         -11.9678     4.7652    -4.5726 H       
 178 H178         -11.4865     2.7502    -6.0143 H       
 179 H179         -12.3473     1.7491    -4.8205 H       
 180 H180         -14.3709     3.2056    -5.1299 H       
 181 H181         -14.4258     4.7640    -7.0316 H       
 182 H182         -13.1183     5.2225    -5.9143 H       
 183 H183         -12.7363     4.3696    -7.4292 H       
 184 H184         -14.1118     1.0896    -6.3965 H       
 185 H185         -14.9601     2.3161    -7.3683 H       
 186 H186         -13.2433     1.9645    -7.6805 H       
 187 H187         -14.2900     4.8675    -3.8517 H       
 188 H188         -15.0651     3.0492    -1.7022 H       
 189 H189         -14.8710     6.0621    -1.2530 H       
 190 H190         -15.5750     4.8865    -0.1170 H       
 191 H191         -13.8358     4.8304    -0.4918 H       
 192 H192         -17.4660     3.9756    -0.9022 H       
 193 H193         -18.8360     5.3217    -3.1019 H       
 194 H194         -19.4181     2.4223    -2.3515 H       
 195 H195         -20.4636     3.4286    -3.3823 H       
 196 H196         -17.5271     2.8301    -3.9546 H       
 197 H197         -20.0703     1.6790    -5.1890 H       
 198 H198         -18.4095     1.3519    -5.7393 H       
 199 H199         -18.9396     0.7998    -4.1323 H       
 200 H200         -18.3649     4.9734    -4.8783 H       
 201 H201         -18.0739     3.7892    -6.1749 H       
 202 H202         -19.7348     4.1162    -5.6247 H       
 203 H203         -21.4603     5.1047    -2.4202 H       
 204 H204         -21.3805     6.1620     0.3305 H       
 205 H205         -23.4918     6.3190    -1.8663 H       
 206 H206         -23.6610     7.0455    -0.2502 H       
 207 H207         -22.2629     9.7053    -2.3996 H       
 208 H208         -23.7687     5.6679     1.4772 H       
 209 H209         -24.6473     2.9445     0.8952 H       
 210 H210         -23.2574     3.6840     3.5087 H       
 211 H211         -24.1711     2.1802     3.2407 H       
 212 H212         -21.1406     4.0689     2.3836 H       
 213 H213         -19.1553     3.0477     1.3449 H       
 214 H214         -19.2572     0.7353     0.5050 H       
 215 H215         -21.3441    -0.5562     0.7046 H       
 216 H216         -23.3269     0.4621     1.7508 H       
 217 H217         -26.3501     2.3686     2.9031 H       
 218 H218         -27.6054     4.8015     3.9192 H       
 219 H219         -28.9802     2.9850     1.8897 H       
 220 H220         -29.8073     4.2344     2.8505 H       
 221 H221         -28.3215     5.9654     1.8784 H       
 222 H222         -27.4944     4.7160     0.9177 H       
 223 H223         -29.6330     4.1686    -0.2116 H       
 224 H224         -30.4601     5.4180     0.7492 H       
 225 H225         -28.9744     7.1490    -0.2228 H       
 226 H226         -28.1473     5.8996    -1.1836 H       
 227 H227         -29.8694     7.0022    -2.4513 H       
 228 H228         -30.2990     5.4147    -2.2042 H       
 229 H229         -29.8960     3.9306     5.0407 H       
 230 H230         -29.6056     1.1783     5.9723 H       
 231 H231         -29.3001     3.5709     7.8407 H       
 232 H232         -29.5404     1.8918     8.3803 H       
 233 H233         -27.4732     1.2136     7.1906 H       
 234 H234         -27.2329     2.8927     6.6509 H       
 235 H235         -27.0949     3.6323     9.0136 H       
 236 H236         -27.3352     1.9532     9.5533 H       
 237 H237         -25.1386     2.0120     7.7790 H       
 238 H238         -24.5362     3.1435    11.5677 H       
 239 H239         -22.9474     1.9980     8.7111 H       
 240 H240         -22.7090     2.4759    10.3040 H       
 241 H241         -31.4795     0.9423     7.8947 H       
 242 H242         -33.7107     2.7564     7.3867 H       
 243 H243         -33.7911    -0.1874     6.5891 H       
 244 H244         -35.2183     0.8714     6.6896 H       
 245 H245         -34.2094     2.3909     5.0098 H       
 246 H246         -32.7822     1.3320     4.9092 H       
 247 H247         -34.2234    -0.5389     4.1536 H       
 248 H248         -35.6506     0.5199     4.2541 H       
 249 H249         -34.6417     2.0393     2.5742 H       
 250 H250         -33.2145     0.9805     2.4737 H       
 251 H251         -35.9708     0.1327     1.8636 H       
 252 H252         -34.8053     0.4973     0.7346 H       
 253 H253         -35.7781     1.6249     8.6937 H       
 254 H254         -34.8268     0.0618    10.9695 H       
 255 H255         -35.9327     2.8849    11.3217 H       
 256 H256         -35.5690     1.7411    12.6362 H       
 257 H257         -34.2521     2.3831    11.6252 H       
 258 H258         -36.9480    -0.0254    12.6295 H       
 259 H259         -39.1009    -0.9219    10.8720 H       
 260 H260         -38.7698    -0.9650    13.9047 H       
 261 H261         -40.1452    -1.6781    13.0283 H       
 262 H262         -38.5870    -3.1464    11.7774 H       
 263 H263         -37.2116    -2.4333    12.6539 H       
 264 H264         -38.1720    -3.2194    14.8006 H       
 265 H265         -39.5473    -3.9325    13.9242 H       
 266 H266         -37.1596    -4.9637    12.8234 H       
 267 H267         -37.0763    -7.7357    14.9480 H       
 268 H268         -39.0390    -5.0173    15.8165 H       
 269 H269         -38.5481    -6.5514    16.2942 H       
 270 H270         -41.6326     1.3960    12.1633 H       
 271 H271          24.2248     6.8924    -7.8669 H       
 272 H272          23.4570     5.3303    -7.4947 H       
 273 H273          23.3061     6.0302    -9.1243 H       
 274 H274          22.1398     7.2136    -6.5638 H       
 275 H275          21.9889     7.9136    -8.1934 H       
 276 H276          20.8181     5.8680    -8.9637 H       
 277 H277          20.9690     5.1680    -7.3341 H       
 278 H278          19.6517     7.0514    -6.4032 H       
 279 H279          19.5009     7.7514    -8.0328 H       
 280 H280          18.3301     5.7058    -8.8031 H       
 281 H281          18.4809     5.0058    -7.1735 H       
 282 H282          17.1637     6.8892    -6.2426 H       
 283 H283          17.0129     7.5891    -7.8722 H       
 284 H284          15.8421     5.5435    -8.6425 H       
 285 H285          15.9929     4.8436    -7.0129 H       
 286 H286          14.6757     6.7269    -6.0820 H       
 287 H287          14.5249     7.4269    -7.7116 H       
 288 H288          13.3540     5.3813    -8.4818 H       
 289 H289          13.5049     4.6813    -6.8522 H       
 290 H290          12.1877     6.5647    -5.9214 H       
 291 H291          12.0368     7.2646    -7.5510 H       
 292 H292          10.8660     5.2190    -8.3212 H       
 293 H293          11.0168     4.5191    -6.6916 H       
 294 H294           9.6996     6.4024    -5.7608 H       
 295 H295           9.5488     7.1024    -7.3903 H       
 296 H296           8.3780     5.0568    -8.1606 H       
 297 H297           8.5288     4.3568    -6.5310 H       
 298 H298           7.2116     6.2402    -5.6001 H       
 299 H299           7.0608     6.9402    -7.2297 H       
 300 H300           6.0408     4.1946    -6.3704 H       
 301 H301           5.8899     4.8946    -8.0000 H       
@<TRIPOS>BOND
   1    1    2 2
   2    1    4 1
   3    1    9 am
   4    3  125 am
   5    3    4 1
   6    3  142 1
   7    4    5 1
   8    4  143 1
   9    5    6 1
  10    5  144 1
  11    5  145 1
  12    6  146 1
  13    7    8 2
  14    7   10 1
  15    7   20 am
  16    9   10 1
  17    9  147 1
  18   10   11 1
  19   10  148 1
  20   11   12 1
  21   11  149 1
  22   11  150 1
  23   12   13 1
  24   12  151 1
  25   12  152 1
  26   13   14 1
  27   13  153 1
  28   13  154 1
  29   14   15 1
  30   14  155 1
  31   15   16 2
  32   15   17 1
  33   16  156 1
  34   17  157 1
  35   17  158 1
  36   18   19 2
  37   18   21 1
  38   18   34 am
  39   20   21 1
  40   20  159 1
  41   21   22 1
  42   21  160 1
  43   22   23 1
  44   22  161 1
  45   22  162 1
  46   23   24 2
  47   23   31 1
  48   24   25 1
  49   24  163 1
  50   25   26 1
  51   25  164 1
  52   26   27 ar
  53   26   31 ar
  54   27   28 ar
  55   27  165 1
  56   28   29 ar
  57   28  166 1
  58   29   30 ar
  59   29  167 1
  60   30   31 ar
  61   30  168 1
  62   32   33 2
  63   32   35 1
  64   32   41 am
  65   34   35 1
  66   34  169 1
  67   35   36 1
  68   35  170 1
  69   36   37 1
  70   36   38 1
  71   36  171 1
  72   37  172 1
  73   37  173 1
  74   37  174 1
  75   38  175 1
  76   39   40 2
  77   39   42 1
  78   39   49 am
  79   41   42 1
  80   41  176 1
  81   42   43 1
  82   42  177 1
  83   43   44 1
  84   43  178 1
  85   43  179 1
  86   44   45 1
  87   44   46 1
  88   44  180 1
  89   45  181 1
  90   45  182 1
  91   45  183 1
  92   46  184 1
  93   46  185 1
  94   46  186 1
  95   47   48 2
  96   47   50 1
  97   47   54 am
  98   49   50 1
  99   49  187 1
 100   50   51 1
 101   50  188 1
 102   51  189 1
 103   51  190 1
 104   51  191 1
 105   52   53 2
 106   52   55 1
 107   52   62 am
 108   54   55 1
 109   54  192 1
 110   55   56 1
 111   55  193 1
 112   56   57 1
 113   56  194 1
 114   56  195 1
 115   57   58 1
 116   57   59 1
 117   57  196 1
 118   58  197 1
 119   58  198 1
 120   58  199 1
 121   59  200 1
 122   59  201 1
 123   59  202 1
 124   60   61 2
 125   60   63 1
 126   60   70 am
 127   62   63 1
 128   62  203 1
 129   63   64 1
 130   63  204 1
 131   64   65 1
 132   64  205 1
 133   64  206 1
 134   65   66 2
 135   65   67 1
 136   67  207 1
 137   68   69 2
 138   68   71 1
 139   68   81 am
 140   70   71 1
 141   70  208 1
 142   71   72 1
 143   71  209 1
 144   72   73 1
 145   72  210 1
 146   72  211 1
 147   73   74 ar
 148   73   78 ar
 149   74   75 ar
 150   74  212 1
 151   75   76 ar
 152   75  213 1
 153   76   77 ar
 154   76  214 1
 155   77   78 ar
 156   77  215 1
 157   78  216 1
 158   79   80 2
 159   79   82 1
 160   79   90 am
 161   81   82 1
 162   81  217 1
 163   82   83 1
 164   82  218 1
 165   83   84 1
 166   83  219 1
 167   83  220 1
 168   84   85 1
 169   84  221 1
 170   84  222 1
 171   85   86 1
 172   85  223 1
 173   85  224 1
 174   86   87 1
 175   86  225 1
 176   86  226 1
 177   87  227 1
 178   87  228 1
 179   88   89 2
 180   88   91 1
 181   88  101 am
 182   90   91 1
 183   90  229 1
 184   91   92 1
 185   91  230 1
 186   92   93 1
 187   92  231 1
 188   92  232 1
 189   93   94 1
 190   93  233 1
 191   93  234 1
 192   94   95 1
 193   94  235 1
 194   94  236 1
 195   95   96 1
 196   95  237 1
 197   96   97 2
 198   96   98 1
 199   97  238 1
 200   98  239 1
 201   98  240 1
 202   99  100 2
 203   99  102 1
 204   99  110 am
 205  101  102 1
 206  101  241 1
 207  102  103 1
 208  102  242 1
 209  103  104 1
 210  103  243 1
 211  103  244 1
 212  104  105 1
 213  104  245 1
 214  104  246 1
 215  105  106 1
 216  105  247 1
 217  105  248 1
 218  106  107 1
 219  106  249 1
 220  106  250 1
 221  107  251 1
 222  107  252 1
 223  108  109 2
 224  108  111 1
 225  108  115 am
 226  110  111 1
 227  110  253 1
 228  111  112 1
 229  111  254 1
 230  112  255 1
 231  112  256 1
 232  112  257 1
 233  113  114 2
 234  113  116 1
 235  113  124 1
 236  115  116 1
 237  115  258 1
 238  116  117 1
 239  116  259 1
 240  117  118 1
 241  117  260 1
 242  117  261 1
 243  118  119 1
 244  118  262 1
 245  118  263 1
 246  119  120 1
 247  119  264 1
 248  119  265 1
 249  120  121 1
 250  120  266 1
 251  121  122 2
 252  121  123 1
 253  122  267 1
 254  123  268 1
 255  123  269 1
 256  124  270 1
 257  125  126 2
 258  125  141 1
 259  127  128 1
 260  127  271 1
 261  127  272 1
 262  127  273 1
 263  128  129 1
 264  128  274 1
 265  128  275 1
 266  129  130 1
 267  129  276 1
 268  129  277 1
 269  130  131 1
 270  130  278 1
 271  130  279 1
 272  131  132 1
 273  131  280 1
 274  131  281 1
 275  132  133 1
 276  132  282 1
 277  132  283 1
 278  133  134 1
 279  133  284 1
 280  133  285 1
 281  134  135 1
 282  134  286 1
 283  134  287 1
 284  135  136 1
 285  135  288 1
 286  135  289 1
 287  136  137 1
 288  136  290 1
 289  136  291 1
 290  137  138 1
 291  137  292 1
 292  137  293 1
 293  138  139 1
 294  138  294 1
 295  138  295 1
 296  139  140 1
 297  139  296 1
 298  139  297 1
 299  140  141 1
 300  140  298 1
 301  140  299 1
 302  141  300 1
 303  141  301 1

#	End of record

