#	Name: ASD01890466
#	Creating user name:	WinNT
#	Creation time:	15. 06. 2019 19:51

#	Modifying user name:	WinNT
#	Modification time:	15. 06. 2019 19:51

#	Program:	/corina/corina34_cracker 3.40 0067  02.08.2006

@<TRIPOS>MOLECULE
ASD01890466
  47   50    0    0    0
SMALL
NO_CHARGES


@<TRIPOS>ATOM
   1 C1            -0.0278     1.4536    -0.0222 C.2     
   2 C2            -0.0036    -0.0079    -0.0415 C.2     
   3 C3             1.1747    -0.6626    -0.1146 C.2     
   4 C4             2.4500     0.1053    -0.3495 C.3     
   5 C5             3.0815     0.4689     0.9958 C.3     
   6 O6             1.0139     2.0783     0.0396 O.2     
   7 O7            -1.2054     2.1095    -0.0786 O.3     
   8 C8             4.3145     2.5942     0.6679 C.ar    
   9 C9             4.3567     1.2368     0.7609 C.ar    
  10 C10            5.5614     0.5468     0.6425 C.ar    
  11 C11            6.7311     1.2099     0.4301 C.ar    
  12 C12            6.7271     2.6112     0.3282 C.ar    
  13 C13            7.9146     3.3306     0.1097 C.ar    
  14 C14            7.8723     4.6876     0.0167 C.ar    
  15 C15            6.6673     5.3779     0.1354 C.ar    
  16 C16            5.4979     4.7151     0.3478 C.ar    
  17 C17            5.5016     3.3132     0.4485 C.ar    
  18 C18            0.5967    -2.9320    -0.9116 C.ar    
  19 C19            1.2139    -2.1252     0.0349 C.ar    
  20 C20            1.8778    -2.6982     1.1372 C.ar    
  21 C21            1.9278    -4.0446     1.2954 C.ar    
  22 C22            1.3120    -4.8886     0.3525 C.ar    
  23 C23            1.3524    -6.2852     0.4963 C.ar    
  24 C24            0.7481    -7.0774    -0.4318 C.ar    
  25 C25            0.0872    -6.5245    -1.5271 C.ar    
  26 C26            0.0271    -5.1760    -1.7007 C.ar    
  27 C27            0.6394    -4.3252    -0.7622 C.ar    
  28 H28           -0.9284    -0.5640     0.0029 H       
  29 H29            3.1441    -0.5096    -0.9224 H       
  30 H30            2.2283     1.0166    -0.9050 H       
  31 H31            2.3874     1.0839     1.5686 H       
  32 H32            3.3032    -0.4423     1.5512 H       
  33 H33           -1.1205     3.0726    -0.0603 H       
  34 H34            3.3729     3.1155     0.7576 H       
  35 H35            5.5672    -0.5304     0.7208 H       
  36 H36            7.6573     0.6618     0.3407 H       
  37 H37            8.8558     2.8092     0.0164 H       
  38 H38            8.7862     5.2380    -0.1512 H       
  39 H39            6.6616     6.4552     0.0581 H       
  40 H40            4.5718     5.2633     0.4384 H       
  41 H41            0.0845    -2.4899    -1.7534 H       
  42 H42            2.3533    -2.0577     1.8653 H       
  43 H43            2.4409    -4.4693     2.1456 H       
  44 H44            1.8610    -6.7290     1.3394 H       
  45 H45            0.7819    -8.1508    -0.3176 H       
  46 H46           -0.3839    -7.1755    -2.2486 H       
  47 H47           -0.4885    -4.7611    -2.5542 H       
@<TRIPOS>BOND
   1    1    2 1
   2    1    6 2
   3    1    7 1
   4    2    3 2
   5    2   28 1
   6    3    4 1
   7    3   19 1
   8    4    5 1
   9    4   29 1
  10    4   30 1
  11    5    9 1
  12    5   31 1
  13    5   32 1
  14    7   33 1
  15    8    9 ar
  16    8   17 ar
  17    8   34 1
  18    9   10 ar
  19   10   11 ar
  20   10   35 1
  21   11   12 ar
  22   11   36 1
  23   12   13 ar
  24   12   17 ar
  25   13   14 ar
  26   13   37 1
  27   14   15 ar
  28   14   38 1
  29   15   16 ar
  30   15   39 1
  31   16   17 ar
  32   16   40 1
  33   18   19 ar
  34   18   27 ar
  35   18   41 1
  36   19   20 ar
  37   20   21 ar
  38   20   42 1
  39   21   22 ar
  40   21   43 1
  41   22   23 ar
  42   22   27 ar
  43   23   24 ar
  44   23   44 1
  45   24   25 ar
  46   24   45 1
  47   25   26 ar
  48   25   46 1
  49   26   27 ar
  50   26   47 1

#	End of record

