#	Name: ASD03092400
#	Creating user name:	WinNT
#	Creation time:	15. 06. 2019 20:32

#	Modifying user name:	WinNT
#	Modification time:	15. 06. 2019 20:32

#	Program:	/corina/corina34_cracker 3.40 0067  02.08.2006

@<TRIPOS>MOLECULE
ASD03092400
  62   66    0    0    0
SMALL
NO_CHARGES


@<TRIPOS>ATOM
   1 O1             0.4846     0.3850     0.3502 O.3     
   2 N2             0.6567    -0.8091     0.3284 N.2     
   3 C3             1.9147    -1.1247     0.2379 C.2     
   4 C4             2.6353     0.1572     0.1980 C.2     
   5 C5             1.6215     1.0807     0.2764 C.2     
   6 C6             4.0870     0.3925     0.0989 C.2     
   7 O7             4.8530    -0.5501     0.0380 O.2     
   8 N8             4.5654     1.6522     0.0756 N.am    
   9 C9             2.5083    -2.5089     0.1855 C.3     
  10 C10            6.0083     1.8861    -0.0229 C.3     
  11 S11            6.7306     5.7576    -0.7213 S.3     
  12 C12            6.6127     5.3513     0.9349 C.2     
  13 N13            6.3778     4.0808     1.0717 N.2     
  14 C14            6.2775     3.3689    -0.0298 C.2     
  15 C15            6.4368     4.0785    -1.1665 C.2     
  16 N16            6.7483     6.2468     1.9800 N.3     
  17 C17            7.0086     7.6046     1.4799 C.3     
  18 C18            7.2109     8.5498     2.6672 C.3     
  19 O19            6.0599     8.4962     3.5143 O.3     
  20 C20            5.7775     7.1885     4.0198 C.3     
  21 C21            5.5606     6.2295     2.8463 C.3     
  22 C22            4.5139     7.2357     4.8813 C.3     
  23 C23            7.4025     9.9789     2.1555 C.3     
  24 C24            7.2687     3.3331    -4.7521 C.ar    
  25 C25            7.3657     3.8560    -3.4806 C.ar    
  26 C26            6.3753     3.5427    -2.5403 C.ar    
  27 C27            5.3250     2.7057    -2.9408 C.ar    
  28 C28            5.3076     2.2278    -4.2330 C.ar    
  29 N29            6.2617     2.5482    -5.0875 N.ar    
  30 C30            4.1844     1.3265    -4.6769 C.3     
  31 C31            8.3235     3.6669    -5.7753 C.3     
  32 C32            8.1565     4.9675    -6.5636 C.3     
  33 C33            9.2366     4.8598    -5.4853 C.3     
  34 H34            1.7239     2.1558     0.2780 H       
  35 H35            3.9544     2.4041     0.1242 H       
  36 H36            2.5800    -2.8344    -0.8522 H       
  37 H37            3.5027    -2.4949     0.6315 H       
  38 H38            1.8713    -3.1985     0.7394 H       
  39 H39            6.5094     1.4298     0.8308 H       
  40 H40            6.3859     1.4440    -0.9448 H       
  41 H41            7.9065     7.5990     0.8620 H       
  42 H42            6.1594     7.9427     0.8861 H       
  43 H43            8.0921     8.2431     3.2306 H       
  44 H44            6.6170     6.8422     4.6225 H       
  45 H45            4.6883     6.5456     2.2743 H       
  46 H46            5.4016     5.2201     3.2257 H       
  47 H47            3.6748     7.5803     4.2769 H       
  48 H48            4.2992     6.2388     5.2662 H       
  49 H49            4.6676     7.9215     5.7144 H       
  50 H50            6.5200    10.2852     1.5939 H       
  51 H51            7.5465    10.6514     3.0012 H       
  52 H52            8.2777    10.0183     1.5069 H       
  53 H53            8.1925     4.4972    -3.2131 H       
  54 H54            4.5413     2.4391    -2.2471 H       
  55 H55            3.3717     1.9305    -5.0804 H       
  56 H56            4.5476     0.6454    -5.4465 H       
  57 H57            3.8214     0.7517    -3.8248 H       
  58 H58            8.7588     2.8146    -6.2970 H       
  59 H59            8.4823     4.9710    -7.6038 H       
  60 H60            7.2837     5.5818    -6.3421 H       
  61 H61            9.0744     5.4031    -4.5544 H       
  62 H62           10.2730     4.7924    -5.8161 H       
@<TRIPOS>BOND
   1    1    2 1
   2    1    5 1
   3    2    3 2
   4    3    4 1
   5    3    9 1
   6    4    5 2
   7    4    6 1
   8    5   34 1
   9    6    7 2
  10    6    8 am
  11    8   10 1
  12    8   35 1
  13    9   36 1
  14    9   37 1
  15    9   38 1
  16   10   14 1
  17   10   39 1
  18   10   40 1
  19   11   12 1
  20   11   15 1
  21   12   13 2
  22   12   16 1
  23   13   14 1
  24   14   15 2
  25   15   26 1
  26   16   17 1
  27   16   21 1
  28   17   18 1
  29   17   41 1
  30   17   42 1
  31   18   19 1
  32   18   23 1
  33   18   43 1
  34   19   20 1
  35   20   21 1
  36   20   22 1
  37   20   44 1
  38   21   45 1
  39   21   46 1
  40   22   47 1
  41   22   48 1
  42   22   49 1
  43   23   50 1
  44   23   51 1
  45   23   52 1
  46   24   25 ar
  47   24   29 ar
  48   24   31 1
  49   25   26 ar
  50   25   53 1
  51   26   27 ar
  52   27   28 ar
  53   27   54 1
  54   28   29 ar
  55   28   30 1
  56   30   55 1
  57   30   56 1
  58   30   57 1
  59   31   32 1
  60   31   33 1
  61   31   58 1
  62   32   33 1
  63   32   59 1
  64   32   60 1
  65   33   61 1
  66   33   62 1

#	End of record

