#	Name: ASD01910432
#	Creating user name:	WinNT
#	Creation time:	15. 06. 2019 19:55

#	Modifying user name:	WinNT
#	Modification time:	15. 06. 2019 19:55

#	Program:	/corina/corina34_cracker 3.40 0067  02.08.2006

@<TRIPOS>MOLECULE
ASD01910432
  48   51    0    0    0
SMALL
NO_CHARGES


@<TRIPOS>ATOM
   1 C1            -1.3500     3.6616     0.1861 C.ar    
   2 C2            -1.6683     2.3248     0.3646 C.ar    
   3 C3            -0.6636     1.3865     0.5381 C.ar    
   4 C4             0.6587     1.7800     0.5343 C.ar    
   5 C5             0.9832     3.1234     0.3551 C.ar    
   6 C6            -0.0304     4.0637     0.1805 C.ar    
   7 F7            -2.9619     1.9353     0.3699 F       
   8 C8             2.4040     3.5514     0.3508 C.2     
   9 N9             2.8617     4.8135     0.1886 N.2     
  10 C10            4.1668     4.7255     0.2542 C.2     
  11 O11            4.4651     3.4374     0.4509 O.3     
  12 N12            3.4478     2.7795     0.5088 N.2     
  13 C13            5.1479     5.8627     0.1307 C.3     
  14 C14            5.9770     5.9636     1.4131 C.3     
  15 C15            6.9510     7.1387     1.3017 C.3     
  16 C16            7.9045     6.8969     0.1273 C.3     
  17 N17            7.1100     6.6546    -1.0847 N.am    
  18 C18            6.0809     5.6064    -1.0569 C.3     
  19 C19            7.3213     7.3802    -2.2006 C.2     
  20 C20            6.5769     7.0474    -3.4680 C.3     
  21 O21            8.1105     8.3010    -2.1849 O.2     
  22 C22            6.5602     8.2713    -4.3889 C.3     
  23 C23            5.8714     7.9006    -5.7049 C.3     
  24 O24            6.5561     6.7994    -6.3057 O.3     
  25 C25            6.5629     5.6124    -5.5101 C.3     
  26 C26            7.2794     5.8911    -4.1862 C.3     
  27 H27           -2.1360     4.3890     0.0468 H       
  28 H28           -0.9159     0.3456     0.6769 H       
  29 H29            1.4411     1.0481     0.6703 H       
  30 H30            0.2168     5.1057     0.0410 H       
  31 H31            4.6059     6.7953    -0.0264 H       
  32 H32            5.3132     6.1215     2.2632 H       
  33 H33            6.5374     5.0398     1.5569 H       
  34 H34            6.3926     8.0595     1.1332 H       
  35 H35            7.5249     7.2244     2.2245 H       
  36 H36            8.5348     7.7741    -0.0182 H       
  37 H37            8.5276     6.0271     0.3357 H       
  38 H38            6.5553     4.6314    -0.9452 H       
  39 H39            5.5080     5.6322    -1.9839 H       
  40 H40            5.5539     6.7598    -3.2252 H       
  41 H41            6.0135     9.0820    -3.9074 H       
  42 H42            7.5831     8.5896    -4.5902 H       
  43 H43            4.8366     7.6211    -5.5074 H       
  44 H44            5.8947     8.7555    -6.3807 H       
  45 H45            5.5370     5.3030    -5.3100 H       
  46 H46            7.0842     4.8189    -6.0455 H       
  47 H47            8.3168     6.1614    -4.3834 H       
  48 H48            7.2471     4.9997    -3.5598 H       
@<TRIPOS>BOND
   1    1    2 ar
   2    1    6 ar
   3    1   27 1
   4    2    3 ar
   5    2    7 1
   6    3    4 ar
   7    3   28 1
   8    4    5 ar
   9    4   29 1
  10    5    6 ar
  11    5    8 1
  12    6   30 1
  13    8    9 1
  14    8   12 2
  15    9   10 2
  16   10   11 1
  17   10   13 1
  18   11   12 1
  19   13   14 1
  20   13   18 1
  21   13   31 1
  22   14   15 1
  23   14   32 1
  24   14   33 1
  25   15   16 1
  26   15   34 1
  27   15   35 1
  28   16   17 1
  29   16   36 1
  30   16   37 1
  31   17   18 1
  32   17   19 am
  33   18   38 1
  34   18   39 1
  35   19   20 1
  36   19   21 2
  37   20   22 1
  38   20   26 1
  39   20   40 1
  40   22   23 1
  41   22   41 1
  42   22   42 1
  43   23   24 1
  44   23   43 1
  45   23   44 1
  46   24   25 1
  47   25   26 1
  48   25   45 1
  49   25   46 1
  50   26   47 1
  51   26   48 1

#	End of record

