#	Name: ASD01917387
#	Creating user name:	WinNT
#	Creation time:	15. 06. 2019 20:09

#	Modifying user name:	WinNT
#	Modification time:	15. 06. 2019 20:09

#	Program:	/corina/corina34_cracker 3.40 0067  02.08.2006

@<TRIPOS>MOLECULE
ASD01917387
  37   38    0    0    0
SMALL
NO_CHARGES


@<TRIPOS>ATOM
   1 C1            -0.0186     1.5194     0.0104 C.3     
   2 C2             0.0021    -0.0041     0.0020 C.3     
   3 C3             0.5964    -0.5856     1.2783 C.3     
   4 C4            -0.0304     0.0185     2.5284 C.3     
   5 C5            -0.0501     1.5416     2.4922 C.3     
   6 C6             1.3512     2.1385     2.5272 C.3     
   7 C7             2.1563     1.8104     1.2765 C.3     
   8 C8             1.3832     2.1163     0.0002 C.3     
   9 C9            -0.7851     2.0200     1.2374 C.3     
  10 C10           -0.7514     1.9957    -1.2290 C.2     
  11 O11           -0.1845     2.6952    -2.0346 O.2     
  12 O12           -2.0299     1.6401    -1.4309 O.3     
  13 C13           -0.8139     2.0400     3.7039 C.2     
  14 O14           -1.8078     2.7112     3.5574 O.2     
  15 O15           -0.3858     1.7354     4.9391 O.3     
  16 C16           -2.6682     2.1326    -2.6385 C.3     
  17 C17           -1.1662     2.2463     6.0519 C.3     
  18 H18           -1.0216    -0.3760    -0.1193 H       
  19 H19            0.5878    -0.3502    -0.8571 H       
  20 H20            0.3601    -1.6706     1.2850 H       
  21 H21            1.6725    -0.5212     1.2916 H       
  22 H22           -1.0570    -0.3512     2.6299 H       
  23 H23            0.5329    -0.3123     3.4083 H       
  24 H24            1.2750     3.2270     2.6300 H       
  25 H25            1.8821     1.7562     3.4065 H       
  26 H26            3.0518     2.4675     1.2820 H       
  27 H27            2.5353     0.8012     1.2902 H       
  28 H28            1.9360     1.7187    -0.8585 H       
  29 H29            1.3095     3.2027    -0.1235 H       
  30 H30           -0.8212     3.1077     1.2272 H       
  31 H31           -1.7950     1.6144     1.2282 H       
  32 H32           -2.6648     3.2225    -2.6328 H       
  33 H33           -2.1228     1.7721    -3.5107 H       
  34 H34           -3.6963     1.7727    -2.6787 H       
  35 H35           -1.1890     3.3353     6.0100 H       
  36 H36           -2.1832     1.8589     5.9906 H       
  37 H37           -0.7121     1.9282     6.9904 H       
@<TRIPOS>BOND
   1    1    2 1
   2    1    8 1
   3    1    9 1
   4    1   10 1
   5    2    3 1
   6    2   18 1
   7    2   19 1
   8    3    4 1
   9    3   20 1
  10    3   21 1
  11    4    5 1
  12    4   22 1
  13    4   23 1
  14    5    6 1
  15    5    9 1
  16    5   13 1
  17    6    7 1
  18    6   24 1
  19    6   25 1
  20    7    8 1
  21    7   26 1
  22    7   27 1
  23    8   28 1
  24    8   29 1
  25    9   30 1
  26    9   31 1
  27   10   11 2
  28   10   12 1
  29   12   16 1
  30   13   14 2
  31   13   15 1
  32   15   17 1
  33   16   32 1
  34   16   33 1
  35   16   34 1
  36   17   35 1
  37   17   36 1
  38   17   37 1

#	End of record

