#	Name: ASD01200043
#	Creating user name:	WinNT
#	Creation time:	15. 06. 2019 19:08

#	Modifying user name:	WinNT
#	Modification time:	15. 06. 2019 19:08

#	Program:	/corina/corina34_cracker 3.40 0067  02.08.2006

@<TRIPOS>MOLECULE
ASD01200043
  38   40    0    0    0
SMALL
NO_CHARGES


@<TRIPOS>ATOM
   1 C1             0.0103     1.2790    -0.1139 C.ar    
   2 C2            -0.0238     0.1545     0.7023 C.ar    
   3 C3            -1.2095    -0.5191     0.9128 C.ar    
   4 C4            -2.3793    -0.0765     0.3093 C.ar    
   5 C5            -2.3514     1.0587    -0.5156 C.ar    
   6 C6            -1.1461     1.7361    -0.7180 C.ar    
   7 C7            -3.5874     1.5363    -1.1610 C.2     
   8 N8            -3.5837     2.6948    -1.8497 N.am    
   9 C9            -4.7485     3.1449    -2.4579 C.2     
  10 N10           -4.8533     4.2415    -3.1414 N.2     
  11 C11           -6.0393     4.5164    -3.6516 C.2     
  12 C12           -6.9811     3.6091    -3.3866 C.2     
  13 S13           -6.2508     2.3297    -2.4204 S.3     
  14 O14           -4.6105     0.8850    -1.0722 O.2     
  15 C15           -6.3080     5.7552    -4.4666 C.3     
  16 O16            1.1843     1.9353    -0.3144 O.3     
  17 N17           -3.5743    -0.7560     0.5212 N.pl3   
  18 C18            1.5194     2.9241     0.5560 C.ar    
  19 C19            2.7022     3.6286     0.3846 C.ar    
  20 C20            3.0414     4.6332     1.2700 C.ar    
  21 C21            2.2016     4.9372     2.3281 C.ar    
  22 C22            1.0210     4.2347     2.5006 C.ar    
  23 C23            0.6761     3.2337     1.6133 C.ar    
  24 F24            2.5346     5.9200     3.1932 F       
  25 H25            0.8829    -0.1943     1.1742 H       
  26 H26           -1.2278    -1.3925     1.5477 H       
  27 H27           -1.1167     2.6106    -1.3511 H       
  28 H28           -2.7676     3.2143    -1.9205 H       
  29 H29           -8.0104     3.6499    -3.7111 H       
  30 H30           -6.1228     5.5444    -5.5199 H       
  31 H31           -7.3463     6.0592    -4.3340 H       
  32 H32           -5.6493     6.5580    -4.1354 H       
  33 H33           -3.5613    -1.6871     0.7930 H       
  34 H34           -4.4208    -0.2988     0.3973 H       
  35 H35            3.3577     3.3915    -0.4403 H       
  36 H36            3.9623     5.1816     1.1371 H       
  37 H37            0.3672     4.4724     3.3267 H       
  38 H38           -0.2450     2.6861     1.7479 H       
@<TRIPOS>BOND
   1    1    2 ar
   2    1   16 1
   3    1    6 ar
   4    2    3 ar
   5    2   25 1
   6    3    4 ar
   7    3   26 1
   8    4    5 ar
   9    4   17 1
  10    5    6 ar
  11    5    7 1
  12    6   27 1
  13    7    8 am
  14    7   14 2
  15    8    9 1
  16    8   28 1
  17    9   10 2
  18    9   13 1
  19   10   11 1
  20   11   12 2
  21   11   15 1
  22   12   13 1
  23   12   29 1
  24   15   30 1
  25   15   31 1
  26   15   32 1
  27   16   18 1
  28   17   33 1
  29   17   34 1
  30   18   19 ar
  31   18   23 ar
  32   19   20 ar
  33   19   35 1
  34   20   21 ar
  35   20   36 1
  36   21   22 ar
  37   21   24 1
  38   22   23 ar
  39   22   37 1
  40   23   38 1

#	End of record

