#	Name: ASD08150693
#	Creating user name:	WinNT
#	Creation time:	15. 06. 2019 21:16

#	Modifying user name:	WinNT
#	Modification time:	15. 06. 2019 21:16

#	Program:	/corina/corina34_cracker 3.40 0067  02.08.2006

@<TRIPOS>MOLECULE
ASD08150693
  42   45    0    0    0
SMALL
NO_CHARGES


@<TRIPOS>ATOM
   1 C1            -0.0173     1.3308     0.1140 C.2     
   2 N2            -0.0005     0.0025     0.2068 N.2     
   3 C3             1.1380    -0.6677     0.2933 C.2     
   4 C4             2.3418     0.0100     0.2883 C.2     
   5 C5             2.3321     1.4067     0.1910 C.2     
   6 N6             1.1468     2.0477     0.1050 N.am    
   7 C7            -1.2493     2.0037     0.0181 C.2     
   8 C8            -1.2646     3.3630    -0.0769 C.2     
   9 C9            -0.0539     4.0700    -0.0777 C.2     
  10 C10            1.1205     3.4061     0.0093 C.2     
  11 O11            3.3788     2.0352     0.1844 O.2     
  12 C12            1.1207    -2.1710     0.3976 C.3     
  13 C13            0.4602    -2.5832     1.7147 C.3     
  14 C14            0.5539    -4.1015     1.8789 C.3     
  15 N15            0.3627    -2.7297    -0.7247 N.pl3   
  16 N16           -1.0859    -4.1267    -3.0486 N.2     
  17 C17           -1.4003    -5.0618    -3.8973 C.2     
  18 N18           -0.6359    -6.1684    -3.6754 N.pl3   
  19 C19            0.1981    -5.8879    -2.6227 C.ar    
  20 N20            1.1421    -6.5570    -1.9692 N.ar    
  21 C21            1.7890    -5.9987    -0.9677 C.ar    
  22 N22            1.5411    -4.7665    -0.5627 N.ar    
  23 C23            0.6148    -4.0204    -1.1557 C.ar    
  24 C24           -0.1025    -4.5724    -2.2304 C.ar    
  25 C25            2.4150     4.1776     0.0006 C.3     
  26 I26            4.1525    -1.0350     0.4250 I       
  27 H27           -2.1750     1.4475     0.0194 H       
  28 H28           -2.2031     3.8921    -0.1515 H       
  29 H29           -0.0593     5.1474    -0.1531 H       
  30 H30            2.1427    -2.5489     0.3697 H       
  31 H31            0.9707    -2.0958     2.5453 H       
  32 H32           -0.5875    -2.2828     1.7054 H       
  33 H33            0.0435    -4.5890     1.0483 H       
  34 H34            1.6016    -4.4020     1.8882 H       
  35 H35            0.0834    -4.3952     2.8172 H       
  36 H36           -0.3160    -2.1950    -1.1656 H       
  37 H37           -2.1559    -4.9742    -4.6640 H       
  38 H38           -0.6746    -7.0016    -4.1707 H       
  39 H39            2.5505    -6.5701    -0.4578 H       
  40 H40            3.0207     3.8615    -0.8488 H       
  41 H41            2.2022     5.2434    -0.0815 H       
  42 H42            2.9585     3.9858     0.9257 H       
@<TRIPOS>BOND
   1    1    2 2
   2    1    6 1
   3    1    7 1
   4    2    3 1
   5    3    4 2
   6    3   12 1
   7    4    5 1
   8    4   26 1
   9    5    6 am
  10    5   11 2
  11    6   10 1
  12    7    8 2
  13    7   27 1
  14    8    9 1
  15    8   28 1
  16    9   10 2
  17    9   29 1
  18   10   25 1
  19   12   13 1
  20   12   15 1
  21   12   30 1
  22   13   14 1
  23   13   31 1
  24   13   32 1
  25   14   33 1
  26   14   34 1
  27   14   35 1
  28   15   23 1
  29   15   36 1
  30   16   17 2
  31   16   24 1
  32   17   18 1
  33   17   37 1
  34   18   19 1
  35   18   38 1
  36   19   20 ar
  37   19   24 ar
  38   20   21 ar
  39   21   22 ar
  40   21   39 1
  41   22   23 ar
  42   23   24 ar
  43   25   40 1
  44   25   41 1
  45   25   42 1

#	End of record

