#	Name: ASD01148258
#	Creating user name:	WinNT
#	Creation time:	15. 06. 2019 19:02

#	Modifying user name:	WinNT
#	Modification time:	15. 06. 2019 19:02

#	Program:	/corina/corina34_cracker 3.40 0067  02.08.2006

@<TRIPOS>MOLECULE
ASD01148258
  58   61    0    0    0
SMALL
NO_CHARGES


@<TRIPOS>ATOM
   1 C1            -0.1543     2.6547    -0.6691 C.ar    
   2 C2             0.3290     1.3607    -0.7429 C.ar    
   3 C3            -0.5269     0.2917    -0.5544 C.ar    
   4 C4            -1.8655     0.5156    -0.2924 C.ar    
   5 C5            -2.3491     1.8088    -0.2186 C.ar    
   6 C6            -1.4934     2.8783    -0.4016 C.ar    
   7 C7            -3.8086     2.0521     0.0671 C.3     
   8 O8            -4.3498     1.0138     0.9090 O.3     
   9 C9            -3.9980     3.3066     0.9530 C.3     
  10 C10           -4.0408     2.7195     2.3510 C.2     
  11 N11           -4.2344     1.4473     2.2498 N.2     
  12 C12           -3.8874     3.4735     3.6107 C.ar    
  13 C13           -3.9479     2.8056     4.8365 C.ar    
  14 C14           -3.6760     4.8543     3.5771 C.ar    
  15 C15           -3.5325     5.5574     4.7517 C.ar    
  16 C16           -3.5983     4.8903     5.9777 C.ar    
  17 C17           -3.8044     3.5086     6.0111 C.ar    
  18 C18           -3.4443     5.6447     7.2382 C.2     
  19 O19           -2.4401     6.3000     7.4353 O.2     
  20 N20           -4.4176     5.6063     8.1697 N.am    
  21 C21           -4.6055     2.1736    -1.2333 C.3     
  22 F22           -4.4689     0.9958    -1.9758 F       
  23 F23           -5.9562     2.3827    -0.9348 F       
  24 F24           -4.1200     3.2536    -1.9785 F       
  25 Cl25           0.9202     3.9977    -0.9051 Cl      
  26 C26           -4.2088     6.2403     9.4738 C.3     
  27 C27           -4.6695     7.6739     9.4150 C.ar    
  28 N28           -3.8485     8.6045     8.9694 N.ar    
  29 C29           -5.5830     4.9846     7.9015 C.2     
  30 C30           -4.2083     9.8714     8.9001 C.ar    
  31 C31           -5.4704    10.2705     9.2966 C.ar    
  32 C32           -6.3617     9.3200     9.7710 C.ar    
  33 C33           -5.9498     7.9973     9.8235 C.ar    
  34 O34           -5.7988     4.5535     6.7866 O.2     
  35 O35           -6.5076     4.8415     8.8691 O.3     
  36 C36           -7.7391     4.1618     8.5087 C.3     
  37 C37           -0.0007    -1.1181    -0.6352 C.3     
  38 F38            1.3711    -1.0889    -0.9086 F       
  39 F39           -0.2194    -1.7681     0.5842 F       
  40 F40           -0.6651    -1.8061    -1.6562 F       
  41 H41            1.3748     1.1856    -0.9479 H       
  42 H42           -2.5339    -0.3199    -0.1456 H       
  43 H43           -1.8713     3.8884    -0.3439 H       
  44 H44           -3.1537     3.9875     0.8449 H       
  45 H45           -4.9353     3.8099     0.7158 H       
  46 H46           -4.1076     1.7378     4.8623 H       
  47 H47           -3.6248     5.3699     2.6294 H       
  48 H48           -3.3687     6.6246     4.7257 H       
  49 H49           -3.8553     2.9930     6.9587 H       
  50 H50           -4.7798     5.7060    10.2332 H       
  51 H51           -3.1491     6.2093     9.7274 H       
  52 H52           -3.5082    10.6055     8.5295 H       
  53 H53           -5.7589    11.3096     9.2382 H       
  54 H54           -7.3546     9.6028    10.0882 H       
  55 H55           -6.6179     7.2305    10.1870 H       
  56 H56           -8.3955     4.1142     9.3776 H       
  57 H57           -8.2355     4.7097     7.7078 H       
  58 H58           -7.5106     3.1512     8.1701 H       
@<TRIPOS>BOND
   1    1    2 ar
   2    1   25 1
   3    1    6 ar
   4    2    3 ar
   5    2   41 1
   6    3    4 ar
   7    3   37 1
   8    4    5 ar
   9    4   42 1
  10    5    6 ar
  11    5    7 1
  12    6   43 1
  13    7    8 1
  14    7    9 1
  15    7   21 1
  16    8   11 1
  17    9   10 1
  18    9   44 1
  19    9   45 1
  20   10   11 2
  21   10   12 1
  22   12   13 ar
  23   12   14 ar
  24   13   17 ar
  25   13   46 1
  26   14   15 ar
  27   14   47 1
  28   15   16 ar
  29   15   48 1
  30   16   17 ar
  31   16   18 1
  32   17   49 1
  33   18   19 2
  34   18   20 am
  35   20   26 1
  36   20   29 am
  37   21   22 1
  38   21   23 1
  39   21   24 1
  40   26   27 1
  41   26   50 1
  42   26   51 1
  43   27   28 ar
  44   27   33 ar
  45   28   30 ar
  46   29   34 2
  47   29   35 1
  48   30   31 ar
  49   30   52 1
  50   31   32 ar
  51   31   53 1
  52   32   33 ar
  53   32   54 1
  54   33   55 1
  55   35   36 1
  56   36   56 1
  57   36   57 1
  58   36   58 1
  59   37   38 1
  60   37   39 1
  61   37   40 1

#	End of record

