#	Name: ASD01001199
#	Creating user name:	WinNT
#	Creation time:	15. 06. 2019 18:55

#	Modifying user name:	WinNT
#	Modification time:	15. 06. 2019 18:55

#	Program:	/corina/corina34_cracker 3.40 0067  02.08.2006

@<TRIPOS>MOLECULE
ASD01001199
  61   64    0    0    0
SMALL
NO_CHARGES


@<TRIPOS>ATOM
   1 C1            -0.0187     1.5273     0.0104 C.3     
   2 C2             1.4127     2.0573    -0.0004 C.3     
   3 C3             0.0021    -0.0041     0.0020 C.3     
   4 C4             2.1255     1.6823     1.3022 C.3     
   5 C5             2.1893     1.4771    -1.1804 C.3     
   6 C6             0.7934    -0.4801    -1.2201 C.3     
   7 N7             3.4499     2.3200     1.2852 N.pl3   
   8 C8             1.3322     2.1834     2.4814 C.ar    
   9 C9             3.6378     1.8897    -1.0941 C.ar    
  10 C10            0.8535    -2.0090    -1.2267 C.3     
  11 C11            4.2052     2.2840     0.1077 C.ar    
  12 C12            4.4090     1.8705    -2.2430 C.ar    
  13 C13            5.5453     2.6532     0.1539 C.ar    
  14 C14            6.3085     2.6303    -0.9963 C.ar    
  15 C15            5.7401     2.2390    -2.1944 C.ar    
  16 H16            3.7950     2.7593     2.0781 H       
  17 O17            2.1178     0.0494    -1.1551 O.3     
  18 C18            0.5160     1.3167     3.1840 C.ar    
  19 C19           -0.2117     1.7764     4.2656 C.ar    
  20 C20           -0.1230     3.1027     4.6450 C.ar    
  21 C21            0.6939     3.9692     3.9430 C.ar    
  22 C22            1.4249     3.5085     2.8640 C.ar    
  23 N23            1.6105    -2.4629    -2.3959 N.am    
  24 S24            3.2272    -2.7940    -2.2581 S.o2    
  25 C25            3.2931    -4.5522    -1.8165 C.3     
  26 C26            4.7524    -4.9841    -1.6588 C.3     
  27 N27            4.8057    -6.4079    -1.3012 N.3     
  28 O28            3.7397    -2.5893    -3.5675 O.2     
  29 O29            3.6580    -1.9898    -1.1687 O.2     
  30 C30            0.9373    -2.6238    -3.6871 C.3     
  31 C31            6.5732     2.2157    -3.4499 C.3     
  32 F32            7.8767     2.6275    -3.1524 F       
  33 F33            6.6013     0.9160    -3.9669 F       
  34 F34            6.0150     3.0819    -4.3961 F       
  35 H35           -0.5292     1.8786     0.9071 H       
  36 H36           -0.5462     1.8882    -0.8725 H       
  37 H37            1.3930     3.1427    -0.0992 H       
  38 H38            0.4803    -0.3680     0.9114 H       
  39 H39           -1.0184    -0.3830    -0.0532 H       
  40 H40            2.2372     0.5998     1.3640 H       
  41 H41            1.7617     1.8454    -2.1129 H       
  42 H42            0.3044    -0.1308    -2.1295 H       
  43 H43            1.3449    -2.3571    -0.3181 H       
  44 H44           -0.1582    -2.4122    -1.2699 H       
  45 H45            3.9691     1.5659    -3.1811 H       
  46 H46            5.9891     2.9582     1.0901 H       
  47 H47            7.3490     2.9176    -0.9602 H       
  48 H48            0.4467     0.2805     2.8876 H       
  49 H49           -0.8499     1.0994     4.8141 H       
  50 H50           -0.6921     3.4620     5.4896 H       
  51 H51            0.7629     5.0055     4.2392 H       
  52 H52            2.0631     4.1855     2.3155 H       
  53 H53            2.7637    -4.7109    -0.8770 H       
  54 H54            2.8225    -5.1422    -2.6029 H       
  55 H55            5.2818    -4.8254    -2.5983 H       
  56 H56            5.2230    -4.3941    -0.8724 H       
  57 H57            4.3192    -6.9705    -1.9830 H       
  58 H58            5.7597    -6.7176    -1.1913 H       
  59 H59            0.9903    -1.6881    -4.2436 H       
  60 H60            1.4275    -3.4135    -4.2565 H       
  61 H61           -0.1068    -2.8896    -3.5218 H       
@<TRIPOS>BOND
   1    1    3 1
   2    1    2 1
   3    1   35 1
   4    1   36 1
   5    2    4 1
   6    2    5 1
   7    2   37 1
   8    3    6 1
   9    3   38 1
  10    3   39 1
  11    4    7 1
  12    4    8 1
  13    4   40 1
  14    5    9 1
  15    5   17 1
  16    5   41 1
  17    6   10 1
  18    6   17 1
  19    6   42 1
  20    7   11 1
  21    7   16 1
  22    8   18 ar
  23    8   22 ar
  24    9   11 ar
  25    9   12 ar
  26   10   23 1
  27   10   43 1
  28   10   44 1
  29   11   13 ar
  30   12   15 ar
  31   12   45 1
  32   13   14 ar
  33   13   46 1
  34   14   15 ar
  35   14   47 1
  36   15   31 1
  37   18   19 ar
  38   18   48 1
  39   19   20 ar
  40   19   49 1
  41   20   21 ar
  42   20   50 1
  43   21   22 ar
  44   21   51 1
  45   22   52 1
  46   23   24 am
  47   23   30 1
  48   24   25 1
  49   24   28 2
  50   24   29 2
  51   25   26 1
  52   25   53 1
  53   25   54 1
  54   26   27 1
  55   26   55 1
  56   26   56 1
  57   27   57 1
  58   27   58 1
  59   30   59 1
  60   30   60 1
  61   30   61 1
  62   31   32 1
  63   31   33 1
  64   31   34 1

#	End of record

