#	Name: ASD01410616
#	Creating user name:	WinNT
#	Creation time:	15. 06. 2019 19:18

#	Modifying user name:	WinNT
#	Modification time:	15. 06. 2019 19:18

#	Program:	/corina/corina34_cracker 3.40 0067  02.08.2006

@<TRIPOS>MOLECULE
ASD01410616
  71   74    0    0    0
SMALL
NO_CHARGES


@<TRIPOS>ATOM
   1 C1            -0.0378    -0.6955     2.4229 C.ar    
   2 C2             0.6728    -1.1717     3.5158 C.ar    
   3 C3             2.0317    -1.3868     3.3965 C.ar    
   4 N4             2.6574    -1.1454     2.2605 N.ar    
   5 C5             2.0148    -0.6911     1.1970 C.ar    
   6 C6             0.6474    -0.4520     1.2451 C.ar    
   7 O7             2.6979    -0.4565     0.0486 O.3     
   8 C8             4.0457    -0.6355     0.0596 C.ar    
   9 C9             4.5742    -1.9198     0.0072 C.ar    
  10 C10            5.9408    -2.1128     0.0179 C.ar    
  11 C11            6.7980    -1.0231     0.0817 C.ar    
  12 C12            6.2707     0.2762     0.1349 C.ar    
  13 C13            4.8862     0.4612     0.1174 C.ar    
  14 N14            8.1783    -1.2187     0.0934 N.am    
  15 C15            8.8574    -1.2985    -1.0680 C.2     
  16 C16            8.8905    -1.3376     1.3680 C.3     
  17 O17           10.0454    -1.5424    -1.0603 O.2     
  18 C18            8.1406    -1.0847    -2.3763 C.3     
  19 C19            8.8109    -1.9215    -3.4678 C.3     
  20 C20            8.0832    -1.7044    -4.7960 C.3     
  21 C21            8.1474    -0.2240    -5.1767 C.3     
  22 C22            7.4771     0.6128    -4.0852 C.3     
  23 C23            8.2048     0.3958    -2.7570 C.3     
  24 C24            7.4197    -0.0069    -6.5050 C.3     
  25 C25            8.9361    -2.8071     1.7916 C.3     
  26 C26            9.6688    -2.9294     3.1028 C.ar    
  27 C27            8.9722    -2.8476     4.2927 C.ar    
  28 C28            9.6473    -2.9603     5.4997 C.ar    
  29 O29            8.9641    -2.8805     6.6718 O.3     
  30 C30           11.0207    -3.1549     5.5079 C.ar    
  31 C31           11.7129    -3.2361     4.3150 C.ar    
  32 C32           11.0371    -3.1291     3.1137 C.ar    
  33 C33            9.7241    -3.0052     7.8755 C.3     
  34 C34            7.1729     1.4397     0.2033 C.2     
  35 O35            8.3768     1.2753     0.2138 O.2     
  36 O36            6.6627     2.6859     0.2543 O.3     
  37 C37           -0.0804     0.0655     0.0312 C.3     
  38 F38           -1.4374     0.2228     0.3330 F       
  39 F39            0.4597     1.2999    -0.3453 F       
  40 F40            0.0608    -0.8457    -1.0209 F       
  41 H41           -1.1019    -0.5230     2.4885 H       
  42 H42            0.1685    -1.3716     4.4497 H       
  43 H43            2.5893    -1.7570     4.2441 H       
  44 H44            3.9120    -2.7715    -0.0419 H       
  45 H45            6.3440    -3.1139    -0.0232 H       
  46 H46            4.4729     1.4582     0.1580 H       
  47 H47            9.9068    -0.9609     1.2529 H       
  48 H48            8.3715    -0.7559     2.1298 H       
  49 H49            7.0989    -1.3886    -2.2737 H       
  50 H50            9.8527    -1.6176    -3.5704 H       
  51 H51            8.7652    -2.9762    -3.1966 H       
  52 H52            8.5607    -2.3006    -5.5736 H       
  53 H53            7.0415    -2.0084    -4.6935 H       
  54 H54            9.1891     0.0800    -5.2793 H       
  55 H55            7.5228     1.6676    -4.3565 H       
  56 H56            6.4354     0.3089    -3.9827 H       
  57 H57            7.7273     0.9919    -1.9794 H       
  58 H58            9.2466     0.6997    -2.8596 H       
  59 H59            6.3780    -0.3108    -6.4024 H       
  60 H60            7.4654     1.0478    -6.7762 H       
  61 H61            7.8972    -0.6030    -7.2826 H       
  62 H62            7.9198    -3.1838     1.9068 H       
  63 H63            9.4551    -3.3889     1.0298 H       
  64 H64            7.9029    -2.6957     4.2837 H       
  65 H65           11.5485    -3.2426     6.4461 H       
  66 H66           12.7822    -3.3873     4.3208 H       
  67 H67           11.5799    -3.1933     2.1822 H       
  68 H68           10.2220    -3.9747     7.8921 H       
  69 H69           10.4710    -2.2124     7.9173 H       
  70 H70            9.0591    -2.9235     8.7352 H       
  71 H71            7.2938     3.4173     0.2983 H       
@<TRIPOS>BOND
   1    1    2 ar
   2    1    6 ar
   3    1   41 1
   4    2    3 ar
   5    2   42 1
   6    3    4 ar
   7    3   43 1
   8    4    5 ar
   9    5    6 ar
  10    5    7 1
  11    6   37 1
  12    7    8 1
  13    8    9 ar
  14    8   13 ar
  15    9   10 ar
  16    9   44 1
  17   10   11 ar
  18   10   45 1
  19   11   12 ar
  20   11   14 1
  21   12   13 ar
  22   12   34 1
  23   13   46 1
  24   14   15 am
  25   14   16 1
  26   15   17 2
  27   15   18 1
  28   16   25 1
  29   16   47 1
  30   16   48 1
  31   18   19 1
  32   18   23 1
  33   18   49 1
  34   19   20 1
  35   19   50 1
  36   19   51 1
  37   20   21 1
  38   20   52 1
  39   20   53 1
  40   21   22 1
  41   21   24 1
  42   21   54 1
  43   22   23 1
  44   22   55 1
  45   22   56 1
  46   23   57 1
  47   23   58 1
  48   24   59 1
  49   24   60 1
  50   24   61 1
  51   25   26 1
  52   25   62 1
  53   25   63 1
  54   26   27 ar
  55   26   32 ar
  56   27   28 ar
  57   27   64 1
  58   28   29 1
  59   28   30 ar
  60   29   33 1
  61   30   31 ar
  62   30   65 1
  63   31   32 ar
  64   31   66 1
  65   32   67 1
  66   33   68 1
  67   33   69 1
  68   33   70 1
  69   34   35 2
  70   34   36 1
  71   36   71 1
  72   37   38 1
  73   37   39 1
  74   37   40 1

#	End of record

