#	Name: ASD01911113
#	Creating user name:	WinNT
#	Creation time:	15. 06. 2019 19:57

#	Modifying user name:	WinNT
#	Modification time:	15. 06. 2019 19:57

#	Program:	/corina/corina34_cracker 3.40 0067  02.08.2006

@<TRIPOS>MOLECULE
ASD01911113
  44   47    0    0    0
SMALL
NO_CHARGES


@<TRIPOS>ATOM
   1 C1             0.0967     1.0223     0.1631 C.2     
   2 O2             1.1211     1.6749     0.1990 O.2     
   3 C3             1.1795    -2.4596    -0.7614 C.ar    
   4 C4             1.1552    -1.0799    -0.6964 C.ar    
   5 C5             0.1622    -0.4544     0.0635 C.ar    
   6 C6            -0.7670    -1.2612     0.7272 C.ar    
   7 C7            -0.6686    -2.6340     0.6072 C.ar    
   8 N8             0.2838    -3.1833    -0.1198 N.ar    
   9 N9            -1.0991     1.6415     0.2194 N.am    
  10 C10           -2.3441     0.8833     0.0355 C.3     
  11 C11           -3.1690     1.5503    -1.0698 C.3     
  12 C12           -3.3773     3.0267    -0.7249 C.3     
  13 C13           -2.0203     3.7297    -0.6438 C.3     
  14 C14           -1.1827     3.0865     0.4718 C.3     
  15 O15           -5.4300     0.7644    -0.2199 O.3     
  16 N16           -6.3928     0.1536    -0.6338 N.2     
  17 C17           -6.2026    -0.1974    -1.8759 C.2     
  18 N18           -4.9861     0.2587    -2.2392 N.2     
  19 C19           -4.5071     0.8661    -1.1812 C.2     
  20 O20           -7.0672    -0.8916    -2.6567 O.3     
  21 C21           -8.2075    -1.3606    -2.0851 C.ar    
  22 C22           -8.5302    -1.0038    -0.7838 C.ar    
  23 C23           -9.6899    -1.4819    -0.2051 C.ar    
  24 C24          -10.5285    -2.3158    -0.9215 C.ar    
  25 C25          -10.2089    -2.6733    -2.2184 C.ar    
  26 C26           -9.0538    -2.1926    -2.8040 C.ar    
  27 H27            1.9399    -2.9519    -1.3494 H       
  28 H28            1.8925    -0.4933    -1.2244 H       
  29 H29           -1.5497    -0.8179     1.3249 H       
  30 H30           -1.3814    -3.2656     1.1164 H       
  31 H31           -2.1088    -0.1414    -0.2520 H       
  32 H32           -2.9124     0.8827     0.9657 H       
  33 H33           -2.6385     1.4696    -2.0186 H       
  34 H34           -3.9848     3.4979    -1.4976 H       
  35 H35           -3.8858     3.1069     0.2359 H       
  36 H36           -1.5007     3.6286    -1.5966 H       
  37 H37           -2.1706     4.7861    -0.4213 H       
  38 H38           -1.6582     3.2619     1.4368 H       
  39 H39           -0.1809     3.5159     0.4723 H       
  40 H40           -7.8752    -0.3530    -0.2236 H       
  41 H41           -9.9415    -1.2044     0.8078 H       
  42 H42          -11.4345    -2.6889    -0.4672 H       
  43 H43          -10.8652    -3.3254    -2.7756 H       
  44 H44           -8.8071    -2.4682    -3.8186 H       
@<TRIPOS>BOND
   1    1    2 2
   2    1    5 1
   3    1    9 am
   4    3    4 ar
   5    3    8 ar
   6    3   27 1
   7    4    5 ar
   8    4   28 1
   9    5    6 ar
  10    6    7 ar
  11    6   29 1
  12    7    8 ar
  13    7   30 1
  14    9   10 1
  15    9   14 1
  16   10   11 1
  17   10   31 1
  18   10   32 1
  19   11   12 1
  20   11   19 1
  21   11   33 1
  22   12   13 1
  23   12   34 1
  24   12   35 1
  25   13   14 1
  26   13   36 1
  27   13   37 1
  28   14   38 1
  29   14   39 1
  30   15   16 1
  31   15   19 1
  32   16   17 2
  33   17   18 1
  34   17   20 1
  35   18   19 2
  36   20   21 1
  37   21   22 ar
  38   21   26 ar
  39   22   23 ar
  40   22   40 1
  41   23   24 ar
  42   23   41 1
  43   24   25 ar
  44   24   42 1
  45   25   26 ar
  46   25   43 1
  47   26   44 1

#	End of record

