#	Name: ASD00431382
#	Creating user name:	WinNT
#	Creation time:	15. 06. 2019 18:35

#	Modifying user name:	WinNT
#	Modification time:	15. 06. 2019 18:35

#	Program:	/corina/corina34_cracker 3.40 0067  02.08.2006

@<TRIPOS>MOLECULE
ASD00431382
  12   12    0    0    0
SMALL
NO_CHARGES


@<TRIPOS>ATOM
   1 S1            -0.0211     1.7051     0.0114 S.3     
   2 C2             0.0021    -0.0041     0.0020 C.2     
   3 N3             1.2208    -0.4391    -0.0120 N.2     
   4 C4             2.1799     0.4574    -0.0163 C.2     
   5 C5             1.7405     1.7401    -0.0052 C.2     
   6 C6             2.5816     2.9424    -0.0072 C.2     
   7 Cl7            4.3109     2.7918    -0.0251 Cl      
   8 N8             2.0323     4.1192     0.0044 N.2     
   9 O9             2.8439     5.2795     0.0025 O.3     
  10 Cl10           3.8642     0.0372    -0.0337 Cl      
  11 Cl11          -1.4100    -1.0138     0.0101 Cl      
  12 H12            2.3456     6.1081     0.0117 H       
@<TRIPOS>BOND
   1    1    2 1
   2    1    5 1
   3    2    3 2
   4    2   11 1
   5    3    4 1
   6    4    5 2
   7    4   10 1
   8    5    6 1
   9    6    7 1
  10    6    8 2
  11    8    9 1
  12    9   12 1

#	End of record

