#	Name: ASD01948025
#	Creating user name:	WinNT
#	Creation time:	15. 06. 2019 20:13

#	Modifying user name:	WinNT
#	Modification time:	15. 06. 2019 20:13

#	Program:	/corina/corina34_cracker 3.40 0067  02.08.2006

@<TRIPOS>MOLECULE
ASD01948025
  48   51    0    0    0
SMALL
NO_CHARGES


@<TRIPOS>ATOM
   1 C1            -0.5734     1.4021     0.0868 C.2     
   2 C2            -0.4034     0.0483    -0.1556 C.2     
   3 C3             0.8661    -0.5335    -0.0259 C.2     
   4 C4             1.9401     0.2671     0.3471 C.2     
   5 C5             1.7276     1.6211     0.5813 C.2     
   6 N6             0.4981     2.1622     0.4511 N.am    
   7 N7            -1.7365     2.1461     0.0050 N.pl3   
   8 C8            -1.4438     3.5415     0.3480 C.3     
   9 C9             0.0635     3.5553     0.6490 C.3     
  10 O10            2.6672     2.3310     0.9096 O.2     
  11 C11            3.3176    -0.3256     0.4963 C.3     
  12 N12            1.0476    -1.8877    -0.2657 N.pl3   
  13 C13            0.4589    -2.8331     0.5811 C.ar    
  14 C14            0.5266    -4.1871     0.2683 C.ar    
  15 C15           -0.0560    -5.1181     1.1079 C.ar    
  16 C16           -0.7057    -4.7037     2.2573 C.ar    
  17 C17           -0.7741    -3.3583     2.5699 C.ar    
  18 C18           -0.1890    -2.4229     1.7380 C.ar    
  19 I19           -1.5885    -6.1177     3.5263 I       
  20 F20            1.1602    -4.5914    -0.8543 F       
  21 C21           -3.0536     1.6225    -0.3659 C.3     
  22 C22           -3.2162     1.6865    -1.8627 C.ar    
  23 C23           -2.8200     0.6195    -2.6472 C.ar    
  24 C24           -2.9692     0.6781    -4.0203 C.ar    
  25 C25           -3.5149     1.8036    -4.6088 C.ar    
  26 C26           -3.9119     2.8703    -3.8242 C.ar    
  27 C27           -3.7667     2.8099    -2.4508 C.ar    
  28 N28           -1.5073    -0.7447    -0.5325 N.pl3   
  29 H29           -1.6670     4.1954    -0.4949 H       
  30 H30           -2.0125     3.8446     1.2271 H       
  31 H31            0.2440     3.8668     1.6778 H       
  32 H32            0.5815     4.2168    -0.0454 H       
  33 H33            3.8111    -0.3471    -0.4754 H       
  34 H34            3.9019     0.2822     1.1871 H       
  35 H35            3.2362    -1.3407     0.8849 H       
  36 H36            1.5827    -2.1791    -1.0205 H       
  37 H37           -0.0043    -6.1695     0.8665 H       
  38 H38           -1.2820    -3.0386     3.4677 H       
  39 H39           -0.2396    -1.3728     1.9856 H       
  40 H40           -3.1395     0.5875    -0.0350 H       
  41 H41           -3.8299     2.2217     0.1098 H       
  42 H42           -2.3937    -0.2599    -2.1875 H       
  43 H43           -2.6590    -0.1552    -4.6332 H       
  44 H44           -3.6308     1.8498    -5.6815 H       
  45 H45           -4.3379     3.7498    -4.2840 H       
  46 H46           -4.0803     3.6417    -1.8375 H       
  47 H47           -2.3530    -0.3246    -0.7544 H       
  48 H48           -1.4208    -1.7101    -0.5697 H       
@<TRIPOS>BOND
   1    1    2 2
   2    1    6 1
   3    1    7 1
   4    2    3 1
   5    2   28 1
   6    3    4 2
   7    3   12 1
   8    4    5 1
   9    4   11 1
  10    5    6 am
  11    5   10 2
  12    6    9 1
  13    7    8 1
  14    7   21 1
  15    8    9 1
  16    8   29 1
  17    8   30 1
  18    9   31 1
  19    9   32 1
  20   11   33 1
  21   11   34 1
  22   11   35 1
  23   12   13 1
  24   12   36 1
  25   13   14 ar
  26   13   18 ar
  27   14   15 ar
  28   14   20 1
  29   15   16 ar
  30   15   37 1
  31   16   17 ar
  32   16   19 1
  33   17   18 ar
  34   17   38 1
  35   18   39 1
  36   21   22 1
  37   21   40 1
  38   21   41 1
  39   22   23 ar
  40   22   27 ar
  41   23   24 ar
  42   23   42 1
  43   24   25 ar
  44   24   43 1
  45   25   26 ar
  46   25   44 1
  47   26   27 ar
  48   26   45 1
  49   27   46 1
  50   28   47 1
  51   28   48 1

#	End of record

