#	Name: ASD03320083
#	Creating user name:	WinNT
#	Creation time:	15. 06. 2019 20:36

#	Modifying user name:	WinNT
#	Modification time:	15. 06. 2019 20:36

#	Program:	/corina/corina34_cracker 3.40 0067  02.08.2006

@<TRIPOS>MOLECULE
ASD03320083
  29   30    0    0    0
SMALL
NO_CHARGES


@<TRIPOS>ATOM
   1 C1            -0.1749     1.4740    -0.5686 C.2     
   2 C2            -0.1527    -0.0034    -0.5721 C.ar    
   3 C3             0.8982    -0.6981    -1.1848 C.ar    
   4 C4             0.8725    -2.0807    -1.1603 C.ar    
   5 C5            -0.1822    -2.7283    -0.5361 C.ar    
   6 N6            -1.1589    -2.0461     0.0331 N.ar    
   7 C7            -1.1752    -0.7293     0.0399 C.ar    
   8 O8             0.7237     2.0968    -1.1004 O.2     
   9 N9            -1.1942     2.1313     0.0193 N.am    
  10 C10           -1.1618     3.5277     0.1194 C.ar    
  11 C11           -2.3383     4.2587     0.0198 C.ar    
  12 C12           -2.3056     5.6356     0.1191 C.ar    
  13 C13           -1.0980     6.2886     0.3184 C.ar    
  14 C14            0.0777     5.5590     0.4176 C.ar    
  15 C15            0.0459     4.1817     0.3242 C.ar    
  16 O16           -1.0667     7.6444     0.4160 O.3     
  17 C17            0.2110     8.2507     0.6210 C.3     
  18 F18            1.0556     7.9312    -0.4475 F       
  19 F19            0.0612     9.6395     0.6979 F       
  20 F20            0.7670     7.7750     1.8134 F       
  21 I21            2.4108    -3.1844    -2.0573 I       
  22 Cl22          -0.2199    -4.4635    -0.5028 Cl      
  23 H23            1.7075    -0.1677    -1.6644 H       
  24 H24           -1.9893    -0.2066     0.5199 H       
  25 H25           -1.9502     1.6370     0.3730 H       
  26 H26           -3.2785     3.7505    -0.1357 H       
  27 H27           -3.2205     6.2043     0.0412 H       
  28 H28            1.0176     6.0681     0.5720 H       
  29 H29            0.9608     3.6135     0.4058 H       
@<TRIPOS>BOND
   1    1    2 1
   2    1    8 2
   3    1    9 am
   4    2    3 ar
   5    2    7 ar
   6    3    4 ar
   7    3   23 1
   8    4    5 ar
   9    4   21 1
  10    5    6 ar
  11    5   22 1
  12    6    7 ar
  13    7   24 1
  14    9   10 1
  15    9   25 1
  16   10   11 ar
  17   10   15 ar
  18   11   12 ar
  19   11   26 1
  20   12   13 ar
  21   12   27 1
  22   13   14 ar
  23   13   16 1
  24   14   15 ar
  25   14   28 1
  26   15   29 1
  27   16   17 1
  28   17   18 1
  29   17   19 1
  30   17   20 1

#	End of record

