#	Name: ASD05060010
#	Creating user name:	WinNT
#	Creation time:	15. 06. 2019 20:56

#	Modifying user name:	WinNT
#	Modification time:	15. 06. 2019 20:56

#	Program:	/corina/corina34_cracker 3.40 0067  02.08.2006

@<TRIPOS>MOLECULE
ASD05060010
 131  131    0    0    0
SMALL
NO_CHARGES


@<TRIPOS>ATOM
   1 N1            -2.6410     5.3864    -2.2431 N.3     
   2 N2            -2.5251     4.2278    -3.1139 N.3     
   3 C3            -3.7918     3.4862    -3.1744 C.3     
   4 C4            -3.8697     2.5303    -2.0119 C.2     
   5 N5            -5.0440     2.4282    -1.3216 N.am    
   6 C6            -5.0371     1.4678    -0.1948 C.3     
   7 C7            -6.1350     1.8453     0.7661 C.2     
   8 N8            -5.9672     1.5958     2.0937 N.am    
   9 C9            -7.0763     1.9891     2.9852 C.3     
  10 C10           -6.5200     2.8019     4.1256 C.2     
  11 N11           -7.2418     3.8649     4.5890 N.am    
  12 C12           -6.6284     4.6081     5.7129 C.3     
  13 C13           -6.5572     6.0676     5.3439 C.2     
  14 N14           -5.5432     6.8269     5.8421 N.am    
  15 C15           -5.5252     8.2488     5.4450 C.3     
  16 C16           -4.1611     8.5842     4.8991 C.2     
  17 N17           -4.0323     9.6587     4.0657 N.am    
  18 C18           -2.6614     9.9183     3.5705 C.3     
  19 C19           -2.7025    10.0082     2.0666 C.2     
  20 C20           -1.6560     9.3355     1.2529 C.2     
  21 C21           -1.6990     9.4229    -0.2511 C.3     
  22 N22           -1.2914     8.1210    -0.8159 N.am    
  23 C23           -1.9653     7.6981    -1.9202 C.2     
  24 C24           -1.5963     6.3753    -2.5411 C.3     
  25 O25           -2.8505     8.3760    -2.3975 O.2     
  26 O26           -0.7710     8.7193     1.7970 O.2     
  27 O27           -3.5860    10.6264     1.5225 O.2     
  28 O28           -3.1954     7.9127     5.1947 O.2     
  29 O29           -7.3913     6.5586     4.6131 O.2     
  30 O30           -5.4508     2.5177     4.6226 O.2     
  31 O31           -7.1541     2.3638     0.3621 O.2     
  32 O32           -2.9074     1.8634    -1.6954 O.2     
  33 C33           -2.1472    11.2376     4.1500 C.3     
  34 C34           -2.0095    11.1085     5.6683 C.3     
  35 C35           -0.9307    10.0744     5.9965 C.3     
  36 C36           -1.6155    12.4625     6.2617 C.3     
  37 C37           -4.9622     4.4692    -3.1057 C.3     
  38 C38           -5.0145     5.2908    -4.3953 C.3     
  39 C39           -6.3363     6.0589    -4.4575 C.3     
  40 C40           -3.8480     6.2806    -4.4172 C.3     
  41 C41           -8.0890     2.8284     2.2037 C.3     
  42 C42           -7.3802     4.0321     1.5795 C.3     
  43 C43           -8.3005     4.6872     0.5476 C.3     
  44 C44           -8.7139     1.9749     1.0984 C.3     
  45 C45           -5.2818     0.0533    -0.7242 C.3     
  46 C46           -4.1132    -0.3659    -1.6183 C.3     
  47 C47           -4.3580    -1.7804    -2.1477 C.3     
  48 C48           -3.1894    -2.1996    -3.0419 C.3     
  49 N49           -3.4243    -3.5577    -3.5502 N.3     
  50 C50           -6.5831     8.4936     4.3672 C.3     
  51 C51           -6.2480     7.6837     3.1413 C.2     
  52 O52           -5.2602     6.9801     3.1307 O.2     
  53 N53           -7.0460     7.7414     2.0567 N.am    
  54 C54           -7.4703     2.9917     7.3945 C.2     
  55 C55           -7.4847     4.4375     6.9693 C.3     
  56 O56           -6.8398     2.1811     6.7579 O.2     
  57 O57           -8.1578     2.6046     8.4804 O.3     
  58 C58           -4.0430     8.6189    -0.3440 C.2     
  59 C59           -3.1218     9.7557    -0.7048 C.3     
  60 O60           -3.6250     7.6818     0.2941 O.2     
  61 O61           -5.3278     8.6472    -0.7316 O.3     
  62 C62            0.8157     6.8967    -2.2973 C.2     
  63 C63           -0.2618     5.8965    -1.9661 C.3     
  64 O64            0.5652     7.8417    -3.0073 O.2     
  65 O65            2.0538     6.7376    -1.8037 O.3     
  66 H66           -3.5593     5.7990    -2.3105 H       
  67 H67           -2.2200     4.4982    -4.0368 H       
  68 H68           -3.8412     2.9270    -4.1087 H       
  69 H69           -5.8286     2.9491    -1.5538 H       
  70 H70           -4.0745     1.5089     0.3150 H       
  71 H71           -5.1603     1.1805     2.4364 H       
  72 H72           -7.5640     1.0965     3.3769 H       
  73 H73           -8.0976     4.1159     4.2075 H       
  74 H74           -5.6237     4.2281     5.8977 H       
  75 H75           -4.8666     6.4527     6.4279 H       
  76 H76           -5.7346     8.8732     6.3136 H       
  77 H77           -4.7875    10.2135     3.8151 H       
  78 H78           -2.0034     9.1027     3.8705 H       
  79 H79           -1.0140    10.1993    -0.5916 H       
  80 H80           -0.5795     7.5942    -0.4203 H       
  81 H81           -1.5053     6.4935    -3.6208 H       
  82 H82           -1.1751    11.4709     3.7156 H       
  83 H83           -2.8510    12.0362     3.9156 H       
  84 H84           -2.9608    10.7885     6.0935 H       
  85 H85            0.0206    10.3944     5.5713 H       
  86 H86           -0.8326     9.9824     7.0782 H       
  87 H87           -1.2114     9.1098     5.5737 H       
  88 H88           -2.3841    13.1992     6.0279 H       
  89 H89           -1.5174    12.3705     7.3434 H       
  90 H90           -0.6642    12.7825     5.8365 H       
  91 H91           -5.8945     3.9166    -2.9889 H       
  92 H92           -4.8265     5.1368    -2.2548 H       
  93 H93           -4.9412     4.6238    -5.2543 H       
  94 H94           -6.4096     6.7259    -3.5985 H       
  95 H95           -6.3736     6.6442    -5.3762 H       
  96 H96           -7.1674     5.3538    -4.4419 H       
  97 H97           -3.8734     6.8920    -3.5152 H       
  98 H98           -2.9069     5.7321    -4.4579 H       
  99 H99           -3.9327     6.9227    -5.2939 H       
 100 H100          -8.8703     3.1770     2.8792 H       
 101 H101          -7.1360     4.7542     2.3587 H       
 102 H102          -6.4639     3.7010     1.0908 H       
 103 H103          -7.7956     5.5447     0.1029 H       
 104 H104          -8.5448     3.9651    -0.2316 H       
 105 H105          -9.2168     5.0183     1.0363 H       
 106 H106          -7.9950     1.2252     0.7679 H       
 107 H107          -9.6054     1.4790     1.4823 H       
 108 H108          -8.9866     2.6124     0.2573 H       
 109 H109          -5.3648    -0.6389     0.1137 H       
 110 H110          -6.2058     0.0365    -1.3022 H       
 111 H111          -4.0303     0.3264    -2.4562 H       
 112 H112          -3.1892    -0.3491    -1.0403 H       
 113 H113          -4.4409    -2.4726    -1.3099 H       
 114 H114          -5.2819    -1.7972    -2.7257 H       
 115 H115          -3.1064    -1.5073    -3.8797 H       
 116 H116          -2.2654    -2.1828    -2.4639 H       
 117 H117          -4.3074    -3.6145    -4.0351 H       
 118 H118          -2.6658    -3.8578    -4.1439 H       
 119 H119          -7.5614     8.1947     4.7438 H       
 120 H120          -6.6010     9.5525     4.1094 H       
 121 H121          -7.8360     8.3041     2.0651 H       
 122 H122          -6.8302     7.2201     1.2676 H       
 123 H123          -7.0809     5.0559     7.7710 H       
 124 H124          -8.5088     4.7431     6.7553 H       
 125 H125          -8.1184     1.6670     8.7138 H       
 126 H126          -3.4575    10.6666    -0.2092 H       
 127 H127          -3.1335     9.9041    -1.7846 H       
 128 H128          -5.8800     7.8955    -0.4766 H       
 129 H129          -0.3466     5.7989    -0.8838 H       
 130 H130          -0.0056     4.9296    -2.3991 H       
 131 H131           2.7112     7.4048    -2.0439 H       
@<TRIPOS>BOND
   1    1    2 1
   2    1   24 1
   3    1   66 1
   4    2    3 1
   5    2   67 1
   6    3    4 1
   7    3   37 1
   8    3   68 1
   9    4    5 am
  10    4   32 2
  11    5    6 1
  12    5   69 1
  13    6    7 1
  14    6   45 1
  15    6   70 1
  16    7    8 am
  17    7   31 2
  18    8    9 1
  19    8   71 1
  20    9   10 1
  21    9   41 1
  22    9   72 1
  23   10   11 am
  24   10   30 2
  25   11   12 1
  26   11   73 1
  27   12   13 1
  28   12   55 1
  29   12   74 1
  30   13   14 am
  31   13   29 2
  32   14   15 1
  33   14   75 1
  34   15   16 1
  35   15   50 1
  36   15   76 1
  37   16   17 am
  38   16   28 2
  39   17   18 1
  40   17   77 1
  41   18   19 1
  42   18   33 1
  43   18   78 1
  44   19   20 1
  45   19   27 2
  46   20   21 1
  47   20   26 2
  48   21   22 1
  49   21   59 1
  50   21   79 1
  51   22   23 am
  52   22   80 1
  53   23   24 1
  54   23   25 2
  55   24   63 1
  56   24   81 1
  57   33   34 1
  58   33   82 1
  59   33   83 1
  60   34   35 1
  61   34   36 1
  62   34   84 1
  63   35   85 1
  64   35   86 1
  65   35   87 1
  66   36   88 1
  67   36   89 1
  68   36   90 1
  69   37   38 1
  70   37   91 1
  71   37   92 1
  72   38   39 1
  73   38   40 1
  74   38   93 1
  75   39   94 1
  76   39   95 1
  77   39   96 1
  78   40   97 1
  79   40   98 1
  80   40   99 1
  81   41   42 1
  82   41   44 1
  83   41  100 1
  84   42   43 1
  85   42  101 1
  86   42  102 1
  87   43  103 1
  88   43  104 1
  89   43  105 1
  90   44  106 1
  91   44  107 1
  92   44  108 1
  93   45   46 1
  94   45  109 1
  95   45  110 1
  96   46   47 1
  97   46  111 1
  98   46  112 1
  99   47   48 1
 100   47  113 1
 101   47  114 1
 102   48   49 1
 103   48  115 1
 104   48  116 1
 105   49  117 1
 106   49  118 1
 107   50   51 1
 108   50  119 1
 109   50  120 1
 110   51   52 2
 111   51   53 am
 112   53  121 1
 113   53  122 1
 114   54   55 1
 115   54   56 2
 116   54   57 1
 117   55  123 1
 118   55  124 1
 119   57  125 1
 120   58   59 1
 121   58   60 2
 122   58   61 1
 123   59  126 1
 124   59  127 1
 125   61  128 1
 126   62   63 1
 127   62   64 2
 128   62   65 1
 129   63  129 1
 130   63  130 1
 131   65  131 1

#	End of record

