#	Name: ASD03240983
#	Creating user name:	WinNT
#	Creation time:	15. 06. 2019 20:35

#	Modifying user name:	WinNT
#	Modification time:	15. 06. 2019 20:35

#	Program:	/corina/corina34_cracker 3.40 0067  02.08.2006

@<TRIPOS>MOLECULE
ASD03240983
  58   63    0    0    0
SMALL
NO_CHARGES


@<TRIPOS>ATOM
   1 C1             0.0814     0.8603    -1.7558 C.3     
   2 C2             1.3629     0.1800    -2.2655 C.3     
   3 C3             1.9890     0.5143    -0.9012 C.3     
   4 C4             0.5594     0.5190    -0.3346 C.3     
   5 O5             0.0336     2.2635    -2.0220 O.3     
   6 C6            -1.2018     0.1330    -2.1621 C.3     
   7 C7             2.8542    -0.5885    -0.3476 C.ar    
   8 C8             3.9279    -0.2781     0.4678 C.ar    
   9 C9             4.7238    -1.2833     0.9777 C.ar    
  10 C10            4.4436    -2.6146     0.6699 C.ar    
  11 C11            3.3594    -2.9211    -0.1524 C.ar    
  12 C12            2.5681    -1.9073    -0.6523 C.ar    
  13 N13            6.8248    -6.7068     0.0246 N.pl3   
  14 C14            7.6105    -7.7182     0.5072 C.2     
  15 N15            8.0246    -7.7508     1.7862 N.2     
  16 C16            7.7009    -6.8179     2.6442 C.2     
  17 C17            6.8635    -5.7053     2.2011 C.ar    
  18 C18            6.4841    -4.6780     3.0717 C.ar    
  19 C19            5.6845    -3.6581     2.5664 C.ar    
  20 C20            5.2941    -3.6982     1.2135 C.ar    
  21 N21            5.6735    -4.6876     0.4189 N.ar    
  22 C22            6.4323    -5.6768     0.8578 C.ar    
  23 C23            7.8344    -8.5898    -0.5500 C.2     
  24 C24            7.1735    -8.0840    -1.6623 C.2     
  25 N25            6.5681    -6.9701    -1.3263 N.2     
  26 C26            7.1511    -8.7152    -3.0305 C.3     
  27 C27            5.2497    -2.5424     3.4404 C.ar    
  28 C28            3.9034    -2.4013     3.7786 C.ar    
  29 C29            3.5049    -1.3596     4.5932 C.ar    
  30 C30            4.4376    -0.4576     5.0726 C.ar    
  31 C31            5.7733    -0.5927     4.7399 C.ar    
  32 C32            6.1848    -1.6335     3.9321 C.ar    
  33 Cl33           2.7319    -3.5321     3.1765 Cl      
  34 N34            2.6427     1.8292    -0.8601 N.3     
  35 H35            1.2485    -0.8893    -2.4431 H       
  36 H36            1.8315     0.7011    -3.1004 H       
  37 H37            0.3793     1.3137     0.3894 H       
  38 H38            0.2254    -0.4577     0.0156 H       
  39 H39           -0.7701     2.6970    -1.7038 H       
  40 H40           -1.1887    -0.8796    -1.7588 H       
  41 H41           -2.0644     0.6700    -1.7675 H       
  42 H42           -1.2666     0.0903    -3.2493 H       
  43 H43            4.1438     0.7531     0.7054 H       
  44 H44            5.5621    -1.0397     1.6136 H       
  45 H45            3.1375    -3.9500    -0.3943 H       
  46 H46            1.7259    -2.1436    -1.2858 H       
  47 H47            8.0473    -6.8695     3.6658 H       
  48 H48            6.8010    -4.6775     4.1041 H       
  49 H49            8.4176    -9.4981    -0.5141 H       
  50 H50            6.3044    -9.3980    -3.1018 H       
  51 H51            7.0553    -7.9374    -3.7880 H       
  52 H52            8.0773    -9.2669    -3.1913 H       
  53 H53            2.4632    -1.2489     4.8560 H       
  54 H54            4.1215     0.3557     5.7090 H       
  55 H55            6.4967     0.1150     5.1171 H       
  56 H56            7.2289    -1.7405     3.6775 H       
  57 H57            3.0389     2.0077     0.0505 H       
  58 H58            3.3441     1.9070    -1.5812 H       
@<TRIPOS>BOND
   1    1    2 1
   2    1    4 1
   3    1    5 1
   4    1    6 1
   5    2    3 1
   6    2   35 1
   7    2   36 1
   8    3    4 1
   9    3    7 1
  10    3   34 1
  11    4   37 1
  12    4   38 1
  13    5   39 1
  14    6   40 1
  15    6   41 1
  16    6   42 1
  17    7    8 ar
  18    7   12 ar
  19    8    9 ar
  20    8   43 1
  21    9   10 ar
  22    9   44 1
  23   10   11 ar
  24   10   20 1
  25   11   12 ar
  26   11   45 1
  27   12   46 1
  28   13   14 1
  29   13   22 1
  30   13   25 1
  31   14   15 1
  32   14   23 2
  33   15   16 2
  34   16   17 1
  35   16   47 1
  36   17   18 ar
  37   17   22 ar
  38   18   19 ar
  39   18   48 1
  40   19   20 ar
  41   19   27 1
  42   20   21 ar
  43   21   22 ar
  44   23   24 1
  45   23   49 1
  46   24   25 2
  47   24   26 1
  48   26   50 1
  49   26   51 1
  50   26   52 1
  51   27   28 ar
  52   27   32 ar
  53   28   29 ar
  54   28   33 1
  55   29   30 ar
  56   29   53 1
  57   30   31 ar
  58   30   54 1
  59   31   32 ar
  60   31   55 1
  61   32   56 1
  62   34   57 1
  63   34   58 1

#	End of record

