#	Name: ASD00960173
#	Creating user name:	WinNT
#	Creation time:	15. 06. 2019 18:53

#	Modifying user name:	WinNT
#	Modification time:	15. 06. 2019 18:53

#	Program:	/corina/corina34_cracker 3.40 0067  02.08.2006

@<TRIPOS>MOLECULE
ASD00960173
  32   34    0    0    0
SMALL
NO_CHARGES


@<TRIPOS>ATOM
   1 C1            -0.0168     1.3882     0.0097 C.2     
   2 C2             0.0021    -0.0041     0.0020 C.2     
   3 N3             1.2754     1.8329    -0.0003 N.pl3   
   4 C4             2.1092     0.7443    -0.0141 C.2     
   5 C5             1.3259    -0.4037    -0.0128 C.2     
   6 N6             1.8461     3.1132     0.0007 N.2     
   7 C7             3.1458     3.2502    -0.0113 C.2     
   8 N8             3.9666     2.2044    -0.0252 N.2     
   9 C9             3.5077     0.9650    -0.0258 C.2     
  10 N10            4.3826    -0.1030    -0.0397 N.pl3   
  11 C11           -1.2120     2.2287     0.0202 C.2     
  12 O12           -2.3158     1.7167     0.0233 O.2     
  13 O13           -1.0916     3.5727     0.0264 O.3     
  14 C14           -2.3019     4.3324     0.0365 C.3     
  15 C15           -1.9720     5.8029     0.0423 C.ar    
  16 C16           -1.8269     6.4834    -1.1522 C.ar    
  17 C17           -1.5242     7.8321    -1.1469 C.ar    
  18 C18           -1.3671     8.5006     0.0528 C.ar    
  19 C19           -1.5131     7.8203     1.2473 C.ar    
  20 C20           -1.8200     6.4724     1.2421 C.ar    
  21 H21           -0.8605    -0.6539     0.0071 H       
  22 H22            1.6854    -1.4221    -0.0217 H       
  23 H23            3.5666     4.2449    -0.0103 H       
  24 H24            5.3397     0.0542    -0.0491 H       
  25 H25            4.0401    -1.0105    -0.0401 H       
  26 H26           -2.8875     4.0949    -0.8516 H       
  27 H27           -2.8782     4.0859     0.9283 H       
  28 H28           -1.9497     5.9611    -2.0895 H       
  29 H29           -1.4102     8.3636    -2.0801 H       
  30 H30           -1.1299     9.5542     0.0570 H       
  31 H31           -1.3900     8.3424     2.1847 H       
  32 H32           -1.9378     5.9418     2.1753 H       
@<TRIPOS>BOND
   1    1    2 2
   2    1    3 1
   3    1   11 1
   4    2    5 1
   5    2   21 1
   6    3    4 1
   7    3    6 1
   8    4    5 2
   9    4    9 1
  10    5   22 1
  11    6    7 2
  12    7    8 1
  13    7   23 1
  14    8    9 2
  15    9   10 1
  16   10   24 1
  17   10   25 1
  18   11   12 2
  19   11   13 1
  20   13   14 1
  21   14   15 1
  22   14   26 1
  23   14   27 1
  24   15   16 ar
  25   15   20 ar
  26   16   17 ar
  27   16   28 1
  28   17   18 ar
  29   17   29 1
  30   18   19 ar
  31   18   30 1
  32   19   20 ar
  33   19   31 1
  34   20   32 1

#	End of record

