#	Name: ASD04880402
#	Creating user name:	WinNT
#	Creation time:	15. 06. 2019 20:53

#	Modifying user name:	WinNT
#	Modification time:	15. 06. 2019 20:53

#	Program:	/corina/corina34_cracker 3.40 0067  02.08.2006

@<TRIPOS>MOLECULE
ASD04880402
  55   58    0    0    0
SMALL
NO_CHARGES


@<TRIPOS>ATOM
   1 C1            -0.0123     1.3684    -0.2540 C.ar    
   2 C2             0.0104    -0.0182    -0.2913 C.ar    
   3 C3             1.2258    -0.6991    -0.2803 C.ar    
   4 C4             2.4132     0.0068    -0.2322 C.ar    
   5 C5             2.3908     1.4035    -0.1946 C.ar    
   6 C6             1.1681     2.0796    -0.2059 C.ar    
   7 C7             3.6540     2.1616    -0.1428 C.2     
   8 N8             4.8331     1.6420    -0.1283 N.2     
   9 N9             5.8660     2.5758    -0.0772 N.am    
  10 C10            5.2848     3.9275    -0.0540 C.3     
  11 C11            3.7659     3.6690    -0.1049 C.3     
  12 O12            1.2440    -2.0585    -0.3165 O.3     
  13 C13            7.1824     2.2880    -0.0526 C.2     
  14 C14            7.1143    -1.4488     0.3514 C.ar    
  15 C15            6.6977    -0.1355     0.2593 C.ar    
  16 C16            7.6300     0.8828     0.0467 C.ar    
  17 C17            8.9830     0.5708    -0.0722 C.ar    
  18 C18            9.3962    -0.7561     0.0221 C.ar    
  19 C19            8.4532    -1.7647     0.2350 C.ar    
  20 O20            8.0019     3.1843    -0.1120 O.2     
  21 C21            3.1649     4.2751    -1.3469 C.ar    
  22 C22            2.1250     5.1796    -1.2409 C.ar    
  23 C23            1.5737     5.7355    -2.3802 C.ar    
  24 C24            2.0626     5.3872    -3.6254 C.ar    
  25 C25            3.1032     4.4834    -3.7313 C.ar    
  26 C26            3.6574     3.9308    -2.5918 C.ar    
  27 O27           -1.1563    -0.7144    -0.3381 O.3     
  28 C28            2.5254    -2.6908    -0.3027 C.3     
  29 C29           -2.3659     0.0465    -0.3463 C.3     
  30 C30           10.8296    -1.0965    -0.1033 C.2     
  31 N31           11.2278    -2.3808    -0.0118 N.am    
  32 O32           11.6489    -0.2179    -0.2889 O.2     
  33 H33           -0.9567     1.8923    -0.2671 H       
  34 H34            3.3561    -0.5198    -0.2233 H       
  35 H35            1.1475     3.1590    -0.1773 H       
  36 H36            5.5588     4.4471     0.8642 H       
  37 H37            5.6026     4.4967    -0.9275 H       
  38 H38            3.2825     4.0660     0.7878 H       
  39 H39            6.3899    -2.2319     0.5203 H       
  40 H40            5.6488     0.1048     0.3510 H       
  41 H41            9.7079     1.3542    -0.2371 H       
  42 H42            8.7723    -2.7939     0.3079 H       
  43 H43            1.7429     5.4517    -0.2681 H       
  44 H44            0.7607     6.4416    -2.2975 H       
  45 H45            1.6315     5.8210    -4.5155 H       
  46 H46            3.4850     4.2110    -4.7041 H       
  47 H47            4.4728     3.2274    -2.6743 H       
  48 H48            2.3970    -3.7727    -0.3350 H       
  49 H49            3.0997    -2.3670    -1.1707 H       
  50 H50            3.0568    -2.4149     0.6081 H       
  51 H51           -2.4213     0.6504     0.5594 H       
  52 H52           -2.3788     0.6989    -1.2194 H       
  53 H53           -3.2200    -0.6295    -0.3852 H       
  54 H54           10.5740    -3.0819     0.1363 H       
  55 H55           12.1682    -2.6041    -0.0941 H       
@<TRIPOS>BOND
   1    1    2 ar
   2    1    6 ar
   3    1   33 1
   4    2    3 ar
   5    2   27 1
   6    3    4 ar
   7    3   12 1
   8    4    5 ar
   9    4   34 1
  10    5    6 ar
  11    5    7 1
  12    6   35 1
  13    7    8 2
  14    7   11 1
  15    8    9 1
  16    9   10 1
  17    9   13 am
  18   10   11 1
  19   10   36 1
  20   10   37 1
  21   11   21 1
  22   11   38 1
  23   12   28 1
  24   13   16 1
  25   13   20 2
  26   14   15 ar
  27   14   19 ar
  28   14   39 1
  29   15   16 ar
  30   15   40 1
  31   16   17 ar
  32   17   18 ar
  33   17   41 1
  34   18   19 ar
  35   18   30 1
  36   19   42 1
  37   21   22 ar
  38   21   26 ar
  39   22   23 ar
  40   22   43 1
  41   23   24 ar
  42   23   44 1
  43   24   25 ar
  44   24   45 1
  45   25   26 ar
  46   25   46 1
  47   26   47 1
  48   27   29 1
  49   28   48 1
  50   28   49 1
  51   28   50 1
  52   29   51 1
  53   29   52 1
  54   29   53 1
  55   30   31 am
  56   30   32 2
  57   31   54 1
  58   31   55 1

#	End of record

