#	Name: ASD03430737
#	Creating user name:	WinNT
#	Creation time:	15. 06. 2019 20:41

#	Modifying user name:	WinNT
#	Modification time:	15. 06. 2019 20:41

#	Program:	/corina/corina34_cracker 3.40 0067  02.08.2006

@<TRIPOS>MOLECULE
ASD03430737
  60   64    0    0    0
SMALL
NO_CHARGES


@<TRIPOS>ATOM
   1 C1            -0.0167     1.3823     0.0096 C.ar    
   2 C2             0.0021    -0.0041     0.0020 C.ar    
   3 C3             1.2027    -0.6819    -0.0154 C.ar    
   4 C4             2.4085     0.0128    -0.0150 C.ar    
   5 C5             2.3860     1.4038    -0.0113 C.ar    
   6 C6             1.1815     2.0869     0.0020 C.ar    
   7 O7             3.4714    -0.8418    -0.0048 O.3     
   8 C8             1.5514    -2.1459    -0.0494 C.3     
   9 C9             3.0369    -2.1458    -0.4357 C.3     
  10 C10            0.4297    -3.8592     1.0106 C.ar    
  11 C11            1.3157    -2.8188     1.2702 C.ar    
  12 C12            0.7179    -2.9071    -1.0398 C.2     
  13 N13            0.0997    -3.8853    -0.3485 N.am    
  14 O14            0.6199    -2.6851    -2.2282 O.2     
  15 C15            1.7826    -2.5962     2.5517 C.ar    
  16 C16            1.3687    -3.4140     3.5939 C.ar    
  17 C17            0.4892    -4.4514     3.3467 C.ar    
  18 C18            0.0188    -4.6773     2.0653 C.ar    
  19 C19           -0.8119    -4.8616    -0.9502 C.3     
  20 O20           -1.2115     2.0355     0.0189 O.3     
  21 O21            1.1868     3.4486     0.0108 O.3     
  22 C22           -1.1866     3.4166     0.3961 C.3     
  23 C23           -0.0353     4.0986    -0.3548 C.3     
  24 O24            2.6477    -1.5749     2.7918 O.3     
  25 C25            3.0898    -1.4025     4.1397 C.3     
  26 C26           -2.2417    -4.3188    -0.9066 C.3     
  27 O27           -2.3351    -3.1558    -1.7316 O.3     
  28 C28           -3.6369    -2.5672    -1.7612 C.3     
  29 O29           -0.8473    -5.7002     1.8318 O.3     
  30 C30           -1.2266    -6.4982     2.9549 C.3     
  31 C31           -3.6196    -1.3366    -2.6702 C.3     
  32 O32           -3.3572    -1.7415    -4.0152 O.3     
  33 C33           -3.3195    -0.6617    -4.9504 C.3     
  34 H34           -0.9268    -0.5549     0.0101 H       
  35 H35            3.3148     1.9550    -0.0185 H       
  36 H36            3.1566    -2.2572    -1.5133 H       
  37 H37            3.5756    -2.9291     0.0977 H       
  38 H38            1.7331    -3.2405     4.5957 H       
  39 H39            0.1676    -5.0883     4.1574 H       
  40 H40           -0.5221    -5.0391    -1.9859 H       
  41 H41           -0.7613    -5.7973    -0.3934 H       
  42 H42           -2.1315     3.8883     0.1266 H       
  43 H43           -1.0260     3.5013     1.4708 H       
  44 H44            0.0111     5.1519    -0.0779 H       
  45 H45           -0.1922     4.0071    -1.4296 H       
  46 H46            2.2299    -1.2153     4.7830 H       
  47 H47            3.6026    -2.3051     4.4722 H       
  48 H48            3.7740    -0.5556     4.1922 H       
  49 H49           -2.9307    -5.0801    -1.2724 H       
  50 H50           -2.5001    -4.0579     0.1197 H       
  51 H51           -4.3548    -3.2921    -2.1448 H       
  52 H52           -3.9242    -2.2700    -0.7527 H       
  53 H53           -1.9183    -7.2759     2.6311 H       
  54 H54           -0.3395    -6.9590     3.3895 H       
  55 H55           -1.7114    -5.8685     3.7009 H       
  56 H56           -4.5871    -0.8367    -2.6234 H       
  57 H57           -2.8400    -0.6508    -2.3385 H       
  58 H58           -4.2808    -0.1479    -4.9510 H       
  59 H59           -2.5337     0.0381    -4.6661 H       
  60 H60           -3.1154    -1.0516    -5.9476 H       
@<TRIPOS>BOND
   1    1    2 ar
   2    1    6 ar
   3    1   20 1
   4    2    3 ar
   5    2   34 1
   6    3    4 ar
   7    3    8 1
   8    4    5 ar
   9    4    7 1
  10    5    6 ar
  11    5   35 1
  12    6   21 1
  13    7    9 1
  14    8    9 1
  15    8   11 1
  16    8   12 1
  17    9   36 1
  18    9   37 1
  19   10   11 ar
  20   10   13 1
  21   10   18 ar
  22   11   15 ar
  23   12   13 am
  24   12   14 2
  25   13   19 1
  26   15   16 ar
  27   15   24 1
  28   16   17 ar
  29   16   38 1
  30   17   18 ar
  31   17   39 1
  32   18   29 1
  33   19   26 1
  34   19   40 1
  35   19   41 1
  36   20   22 1
  37   21   23 1
  38   22   23 1
  39   22   42 1
  40   22   43 1
  41   23   44 1
  42   23   45 1
  43   24   25 1
  44   25   46 1
  45   25   47 1
  46   25   48 1
  47   26   27 1
  48   26   49 1
  49   26   50 1
  50   27   28 1
  51   28   31 1
  52   28   51 1
  53   28   52 1
  54   29   30 1
  55   30   53 1
  56   30   54 1
  57   30   55 1
  58   31   32 1
  59   31   56 1
  60   31   57 1
  61   32   33 1
  62   33   58 1
  63   33   59 1
  64   33   60 1

#	End of record

