#	Name: ASD03731886
#	Creating user name:	WinNT
#	Creation time:	15. 06. 2019 20:46

#	Modifying user name:	WinNT
#	Modification time:	15. 06. 2019 20:46

#	Program:	/corina/corina34_cracker 3.40 0067  02.08.2006

@<TRIPOS>MOLECULE
ASD03731886
  35   36    0    0    0
SMALL
NO_CHARGES


@<TRIPOS>ATOM
   1 C1            -0.0262     1.4689    -0.1369 C.2     
   2 C2            -0.0035    -0.0050    -0.1064 C.ar    
   3 C3             0.0555    -0.6811     1.1180 C.ar    
   4 C4             0.0761    -2.0611     1.1414 C.ar    
   5 C5             0.0384    -2.7780    -0.0471 C.ar    
   6 C6            -0.0203    -2.1091    -1.2673 C.ar    
   7 C7            -0.0466    -0.7319    -1.3001 C.ar    
   8 O8             0.0063     2.0991     0.9026 O.2     
   9 N9            -0.0774     2.1178    -1.3170 N.am    
  10 O10            0.0593    -4.1348    -0.0197 O.3     
  11 C11            1.2628    -4.7576    -0.1397 C.ar    
  12 C12            1.3416    -6.1444    -0.0477 C.ar    
  13 C13            2.5680    -6.7760    -0.1707 C.ar    
  14 C14            3.7149    -6.0258    -0.3852 C.ar    
  15 C15            3.6339    -4.6445    -0.4765 C.ar    
  16 C16            2.4099    -4.0125    -0.3592 C.ar    
  17 O17            4.9193    -6.6453    -0.5055 O.3     
  18 C18            6.0587    -5.8113    -0.7253 C.3     
  19 F19            6.1988    -4.9217     0.3453 F       
  20 F20            7.2059    -6.6057    -0.8247 F       
  21 F21            5.8867    -5.0899    -1.9116 F       
  22 O22            0.2162    -6.8778     0.1631 O.3     
  23 C23            0.3721    -8.2958     0.2467 C.3     
  24 F24           -0.0567    -2.8120    -2.4205 F       
  25 F25            0.0926     0.0159     2.2748 F       
  26 H26            0.1219    -2.5838     2.0853 H       
  27 H27           -0.0962    -0.2144    -2.2468 H       
  28 H28           -0.0992     1.6151    -2.1463 H       
  29 H29           -0.0923     3.0875    -1.3371 H       
  30 H30            2.6315    -7.8518    -0.0992 H       
  31 H31            4.5279    -4.0618    -0.6432 H       
  32 H32            2.3485    -2.9370    -0.4351 H       
  33 H33           -0.6000    -8.7589     0.4161 H       
  34 H34            0.7955    -8.6704    -0.6853 H       
  35 H35            1.0397    -8.5399     1.0730 H       
@<TRIPOS>BOND
   1    1    2 1
   2    1    8 2
   3    1    9 am
   4    2    3 ar
   5    2    7 ar
   6    3    4 ar
   7    3   25 1
   8    4    5 ar
   9    4   26 1
  10    5    6 ar
  11    5   10 1
  12    6    7 ar
  13    6   24 1
  14    7   27 1
  15    9   28 1
  16    9   29 1
  17   10   11 1
  18   11   12 ar
  19   11   16 ar
  20   12   13 ar
  21   12   22 1
  22   13   14 ar
  23   13   30 1
  24   14   15 ar
  25   14   17 1
  26   15   16 ar
  27   15   31 1
  28   16   32 1
  29   17   18 1
  30   18   19 1
  31   18   20 1
  32   18   21 1
  33   22   23 1
  34   23   33 1
  35   23   34 1
  36   23   35 1

#	End of record

