#	Name: ASD01028345
#	Creating user name:	WinNT
#	Creation time:	15. 06. 2019 18:57

#	Modifying user name:	WinNT
#	Modification time:	15. 06. 2019 18:57

#	Program:	/corina/corina34_cracker 3.40 0067  02.08.2006

@<TRIPOS>MOLECULE
ASD01028345
  47   51    0    0    0
SMALL
NO_CHARGES


@<TRIPOS>ATOM
   1 C1            -0.0171     1.4117     0.0098 C.ar    
   2 C2             0.0021    -0.0041     0.0020 C.ar    
   3 C3             1.2126     2.1120     0.0018 C.ar    
   4 C4             2.3828     1.3689    -0.0134 C.ar    
   5 C5             2.3174    -0.0173    -0.0203 C.ar    
   6 N6             1.1707    -0.6568    -0.0123 N.ar    
   7 N7             1.2459     3.4981     0.0085 N.pl3   
   8 C8             2.5319     4.1999     0.0000 C.3     
   9 C9             2.2923     5.6877     0.0098 C.2     
  10 N10            2.1757     6.4693     1.1056 N.pl3   
  11 C11            1.9666     7.7459     0.6403 C.2     
  12 N12            1.9667     7.6766    -0.6809 N.2     
  13 N13            2.1651     6.4571    -1.0425 N.2     
  14 N14            2.2265     6.2244     2.4793 N.2     
  15 C15            2.0755     7.2084     3.3379 C.2     
  16 C16            1.8589     8.5294     2.8916 C.2     
  17 C17            1.8049     8.7989     1.5605 C.2     
  18 C18            2.1329     6.9266     4.7934 C.ar    
  19 C19           -1.2148    -0.7041     0.0100 C.ar    
  20 C20            2.3458     5.6260     5.2457 C.ar    
  21 C21            2.3984     5.3687     6.6019 C.ar    
  22 C22            2.2401     6.4004     7.5111 C.ar    
  23 C23            2.0284     7.6941     7.0668 C.ar    
  24 C24            1.9799     7.9626     5.7126 C.ar    
  25 C25           -2.4012    -0.0059     0.0251 C.ar    
  26 C26           -2.4081     1.3917     0.0326 C.ar    
  27 C27           -1.2418     2.0936     0.0310 C.ar    
  28 O28           -3.5787    -0.6832     0.0324 O.3     
  29 C29           -4.7758     0.0971     0.0481 C.3     
  30 Cl30           2.6630     3.7487     7.1670 Cl      
  31 Cl31           1.8307     8.9826     8.2133 Cl      
  32 H32            3.3413     1.8666    -0.0202 H       
  33 H33            3.2354    -0.5861    -0.0325 H       
  34 H34            0.4179     4.0031     0.0189 H       
  35 H35            3.1053     3.9184     0.8833 H       
  36 H36            3.0886     3.9274    -0.8966 H       
  37 H37            1.7359     9.3275     3.6088 H       
  38 H38            1.6398     9.8081     1.2133 H       
  39 H39           -1.2201    -1.7840     0.0039 H       
  40 H40            2.4691     4.8203     4.5372 H       
  41 H41            2.2815     6.1952     8.5706 H       
  42 H42            1.8150     8.9724     5.3669 H       
  43 H43           -3.3496     1.9208     0.0445 H       
  44 H44           -1.2600     3.1734     0.0372 H       
  45 H45           -4.7912     0.7209     0.9418 H       
  46 H46           -4.8080     0.7310    -0.8380 H       
  47 H47           -5.6413    -0.5655     0.0525 H       
@<TRIPOS>BOND
   1    1    2 ar
   2    1    3 ar
   3    1   27 ar
   4    2   19 ar
   5    2    6 ar
   6    3    4 ar
   7    3    7 1
   8    4    5 ar
   9    4   32 1
  10    5    6 ar
  11    5   33 1
  12    7    8 1
  13    7   34 1
  14    8    9 1
  15    8   35 1
  16    8   36 1
  17    9   10 1
  18    9   13 2
  19   10   11 1
  20   10   14 1
  21   11   12 2
  22   11   17 1
  23   12   13 1
  24   14   15 2
  25   15   16 1
  26   15   18 1
  27   16   17 2
  28   16   37 1
  29   17   38 1
  30   18   20 ar
  31   18   24 ar
  32   19   25 ar
  33   19   39 1
  34   20   21 ar
  35   20   40 1
  36   21   22 ar
  37   21   30 1
  38   22   23 ar
  39   22   41 1
  40   23   24 ar
  41   23   31 1
  42   24   42 1
  43   25   26 ar
  44   25   28 1
  45   26   27 ar
  46   26   43 1
  47   27   44 1
  48   28   29 1
  49   29   45 1
  50   29   46 1
  51   29   47 1

#	End of record

