#	Name: ASD01810459
#	Creating user name:	WinNT
#	Creation time:	15. 06. 2019 19:24

#	Modifying user name:	WinNT
#	Modification time:	15. 06. 2019 19:24

#	Program:	/corina/corina34_cracker 3.40 0067  02.08.2006

@<TRIPOS>MOLECULE
ASD01810459
  42   45    0    0    0
SMALL
NO_CHARGES


@<TRIPOS>ATOM
   1 C1             1.8376     1.4228    -0.9603 C.ar    
   2 C2             2.5439     0.2918    -0.5690 C.ar    
   3 N3             0.9274     2.1074    -0.1614 N.3     
   4 C4             1.1196     2.0023     1.2783 C.3     
   5 C5             0.9516     0.5342     1.7023 C.3     
   6 S6             2.3967    -0.3672     1.0631 S.3     
   7 C7             0.9058     0.4343     3.2053 C.2     
   8 C8             0.8152     3.5122    -0.5763 C.3     
   9 C9            -0.2400     4.1980     0.2526 C.ar    
  10 O10            1.5029     1.2372     3.8826 O.2     
  11 O11            0.2017    -0.5467     3.7916 O.3     
  12 C12            0.1249     4.9211     1.3734 C.ar    
  13 C13           -0.8400     5.5504     2.1354 C.ar    
  14 C14           -2.1774     5.4569     1.7747 C.ar    
  15 C15           -2.5407     4.7306     0.6486 C.ar    
  16 C16           -1.5708     4.1078    -0.1123 C.ar    
  17 N17           -3.1591     6.0941     2.5463 N.pl3   
  18 C18            3.4039    -0.3402    -1.4602 C.ar    
  19 C19            3.5790     0.1575    -2.7364 C.ar    
  20 C20            2.8932     1.2921    -3.1277 C.ar    
  21 C21            2.0322     1.9190    -2.2523 C.ar    
  22 C22           -4.4902     6.0831     2.3079 C.2     
  23 C23           -5.0883     6.8122     3.2783 C.2     
  24 C24           -4.0911     7.2848     4.1386 C.2     
  25 N25           -2.9356     6.8501     3.7043 N.2     
  26 H26            2.1214     2.3443     1.5382 H       
  27 H27            0.3792     2.6166     1.7907 H       
  28 H28            0.0373     0.1248     1.2727 H       
  29 H29            1.7730     4.0116    -0.4307 H       
  30 H30            0.5374     3.5589    -1.6292 H       
  31 H31            0.2021    -0.5699     4.7583 H       
  32 H32            1.1655     4.9935     1.6535 H       
  33 H33           -0.5544     6.1144     3.0111 H       
  34 H34           -3.5803     4.6558     0.3658 H       
  35 H35           -1.8527     3.5427    -0.9884 H       
  36 H36            3.9390    -1.2263    -1.1521 H       
  37 H37            4.2485    -0.3368    -3.4248 H       
  38 H38            3.0325     1.6890    -4.1225 H       
  39 H39            1.5013     2.8046    -2.5688 H       
  40 H40           -4.9866     5.5828     1.4895 H       
  41 H41           -6.1483     6.9967     3.3723 H       
  42 H42           -4.2484     7.8987     5.0131 H       
@<TRIPOS>BOND
   1    1    2 ar
   2    1    3 1
   3    1   21 ar
   4    2   18 ar
   5    2    6 1
   6    3    4 1
   7    3    8 1
   8    4    5 1
   9    4   26 1
  10    4   27 1
  11    5    6 1
  12    5    7 1
  13    5   28 1
  14    7   10 2
  15    7   11 1
  16    8    9 1
  17    8   29 1
  18    8   30 1
  19    9   12 ar
  20    9   16 ar
  21   11   31 1
  22   12   13 ar
  23   12   32 1
  24   13   14 ar
  25   13   33 1
  26   14   15 ar
  27   14   17 1
  28   15   16 ar
  29   15   34 1
  30   16   35 1
  31   17   22 1
  32   17   25 1
  33   18   19 ar
  34   18   36 1
  35   19   20 ar
  36   19   37 1
  37   20   21 ar
  38   20   38 1
  39   21   39 1
  40   22   23 2
  41   22   40 1
  42   23   24 1
  43   23   41 1
  44   24   25 2
  45   24   42 1

#	End of record

