#	Name: ASD01208976
#	Creating user name:	WinNT
#	Creation time:	15. 06. 2019 19:10

#	Modifying user name:	WinNT
#	Modification time:	15. 06. 2019 19:10

#	Program:	/corina/corina34_cracker 3.40 0067  02.08.2006

@<TRIPOS>MOLECULE
ASD01208976
  55   58    0    0    0
SMALL
NO_CHARGES


@<TRIPOS>ATOM
   1 C1            -2.1075     1.7016     0.4090 C.3     
   2 C2            -2.0406     0.2312     0.8330 C.3     
   3 C3            -1.2189    -0.5589    -0.1875 C.3     
   4 C4            -1.3162    -2.0531     0.1264 C.3     
   5 C5            -0.6326    -2.3361     1.4393 C.2     
   6 N6             0.6524    -1.9732     1.6220 N.am    
   7 C7             1.3165    -2.3302     2.7910 C.2     
   8 N8            -2.7256    -2.4427     0.2157 N.pl3   
   9 C9            -3.5096    -2.3410     1.3094 C.2     
  10 C10           -4.7379    -2.8039     0.9808 C.2     
  11 C11           -4.7034    -3.2021    -0.3596 C.2     
  12 N12           -3.4992    -2.9808    -0.8208 N.2     
  13 O13           -1.2389    -2.8904     2.3316 O.2     
  14 S14            2.9888    -1.9334     3.1775 S.3     
  15 C15            2.8276    -2.7719     4.7193 C.2     
  16 C16            1.5862    -3.2550     4.8043 C.2     
  17 N17            0.8014    -3.0039     3.7732 N.2     
  18 F18            3.7942    -2.9034     5.6539 F       
  19 C19           -1.3749     0.1380     2.2094 C.3     
  20 C20           -2.1595     0.9950     3.2062 C.3     
  21 O21           -2.2099     2.3437     2.7365 O.3     
  22 C22           -2.8638     2.4982     1.4753 C.3     
  23 C23           -6.9704    -1.2948     1.8348 C.3     
  24 C24           -8.1520    -1.1814     2.8139 C.3     
  25 C25           -7.8627     0.0374     3.7143 C.3     
  26 C26           -6.9006     0.9118     2.8724 C.3     
  27 C27           -6.0043    -0.1410     2.1743 C.3     
  28 S28           -6.1342    -2.8898     2.0522 S.o2    
  29 O29           -6.9228    -3.9435     1.5163 O.2     
  30 O30           -5.5718    -2.9847     3.3537 O.2     
  31 H31           -1.0971     2.0976     0.3068 H       
  32 H32           -2.6295     1.7824    -0.5445 H       
  33 H33           -3.0490    -0.1793     0.8856 H       
  34 H34           -1.6066    -0.3720    -1.1890 H       
  35 H35           -0.1766    -0.2440    -0.1368 H       
  36 H36           -0.8312    -2.6232    -0.6660 H       
  37 H37            1.1142    -1.4631     0.9383 H       
  38 H38           -3.2102    -1.9590     2.2742 H       
  39 H39           -5.5294    -3.6163    -0.9186 H       
  40 H40            1.2444    -3.8122     5.6640 H       
  41 H41           -1.3729    -0.8996     2.5435 H       
  42 H42           -0.3497     0.5024     2.1436 H       
  43 H43           -3.1729     0.6052     3.3019 H       
  44 H44           -1.6657     0.9665     4.1776 H       
  45 H45           -2.8775     3.5527     1.1998 H       
  46 H46           -3.8865     2.1282     1.5483 H       
  47 H47           -7.3249    -1.1962     0.8087 H       
  48 H48           -9.0798    -1.0269     2.2631 H       
  49 H49           -8.2229    -2.0847     3.4197 H       
  50 H50           -8.7832     0.5806     3.9284 H       
  51 H51           -7.3806    -0.2778     4.6397 H       
  52 H52           -7.4535     1.4968     2.1374 H       
  53 H53           -6.3055     1.5603     3.5153 H       
  54 H54           -5.2221    -0.4851     2.8510 H       
  55 H55           -5.5686     0.2719     1.2645 H       
@<TRIPOS>BOND
   1    1    2 1
   2    1   22 1
   3    1   31 1
   4    1   32 1
   5    2    3 1
   6    2   19 1
   7    2   33 1
   8    3    4 1
   9    3   34 1
  10    3   35 1
  11    4    5 1
  12    4    8 1
  13    4   36 1
  14    5    6 am
  15    5   13 2
  16    6    7 1
  17    6   37 1
  18    7   14 1
  19    7   17 2
  20    8    9 1
  21    8   12 1
  22    9   10 2
  23    9   38 1
  24   10   11 1
  25   10   28 1
  26   11   12 2
  27   11   39 1
  28   14   15 1
  29   15   16 2
  30   15   18 1
  31   16   17 1
  32   16   40 1
  33   19   20 1
  34   19   41 1
  35   19   42 1
  36   20   21 1
  37   20   43 1
  38   20   44 1
  39   21   22 1
  40   22   45 1
  41   22   46 1
  42   23   24 1
  43   23   28 1
  44   23   27 1
  45   23   47 1
  46   24   25 1
  47   24   48 1
  48   24   49 1
  49   25   26 1
  50   25   50 1
  51   25   51 1
  52   26   27 1
  53   26   52 1
  54   26   53 1
  55   27   54 1
  56   27   55 1
  57   28   29 2
  58   28   30 2

#	End of record

