#	Name: ASD01940292
#	Creating user name:	WinNT
#	Creation time:	15. 06. 2019 20:12

#	Modifying user name:	WinNT
#	Modification time:	15. 06. 2019 20:12

#	Program:	/corina/corina34_cracker 3.40 0067  02.08.2006

@<TRIPOS>MOLECULE
ASD01940292
  43   45    0    0    0
SMALL
NO_CHARGES


@<TRIPOS>ATOM
   1 C1            -0.3848     1.1725    -0.4331 C.3     
   2 C2            -0.4666    -0.3198    -0.7606 C.3     
   3 C3             0.8938     0.3364    -0.5162 C.3     
   4 S4            -0.7081     2.3445    -1.7794 S.o2    
   5 O5             0.4061     2.4137    -2.6586 O.2     
   6 O6            -2.0273     2.1769    -2.2803 O.2     
   7 N7            -0.7372     3.8258    -1.0397 N.am    
   8 C8             0.4642     4.4477    -0.6672 C.ar    
   9 C9             0.4722     5.7955    -0.3133 C.ar    
  10 C10            1.6638     6.4063     0.0545 C.ar    
  11 C11            2.8410     5.6753     0.0689 C.ar    
  12 C12            2.8320     4.3364    -0.2829 C.ar    
  13 C13            1.6462     3.7202    -0.6450 C.ar    
  14 N14           -0.7197     6.5330    -0.3290 N.pl3   
  15 C15           -0.6769     7.9307    -0.3442 C.ar    
  16 C16           -0.1989     8.6016    -1.4656 C.ar    
  17 C17           -0.1588     9.9833    -1.4767 C.ar    
  18 C18           -0.5928    10.6979    -0.3739 C.ar    
  19 C19           -1.0682    10.0331     0.7416 C.ar    
  20 C20           -1.1165     8.6522     0.7573 C.ar    
  21 I21           -0.5289    12.7918    -0.3943 I       
  22 F22            0.2256     7.9038    -2.5417 F       
  23 F23            1.6404     2.4120    -0.9823 F       
  24 F24            3.9998     6.2707     0.4264 F       
  25 F25            1.6756     7.7129     0.3978 F       
  26 C26           -0.8488     1.6176     0.9552 C.3     
  27 C27           -0.5507     3.0834     1.1386 C.2     
  28 C28           -1.5208     3.9196     1.4138 C.2     
  29 H29           -0.8510    -0.9845     0.0130 H       
  30 H30           -0.7147    -0.5973    -1.7851 H       
  31 H31            1.5407     0.4904    -1.3798 H       
  32 H32            1.4044     0.1033     0.4182 H       
  33 H33           -1.5848     4.2636    -0.8639 H       
  34 H34            3.7515     3.7700    -0.2705 H       
  35 H35           -1.5742     6.0739    -0.3294 H       
  36 H36            0.2119    10.5054    -2.3464 H       
  37 H37           -1.4060    10.5942     1.6003 H       
  38 H38           -1.4922     8.1345     1.6275 H       
  39 H39           -1.9217     1.4503     1.0506 H       
  40 H40           -0.3222     1.0417     1.7163 H       
  41 H41            0.4627     3.4444     1.0432 H       
  42 H42           -2.5342     3.5586     1.5092 H       
  43 H43           -1.3071     4.9701     1.5452 H       
@<TRIPOS>BOND
   1    1    2 1
   2    1    3 1
   3    1    4 1
   4    1   26 1
   5    2    3 1
   6    2   29 1
   7    2   30 1
   8    3   31 1
   9    3   32 1
  10    4    5 2
  11    4    6 2
  12    4    7 am
  13    7    8 1
  14    7   33 1
  15    8    9 ar
  16    8   13 ar
  17    9   10 ar
  18    9   14 1
  19   10   11 ar
  20   10   25 1
  21   11   12 ar
  22   11   24 1
  23   12   13 ar
  24   12   34 1
  25   13   23 1
  26   14   15 1
  27   14   35 1
  28   15   16 ar
  29   15   20 ar
  30   16   17 ar
  31   16   22 1
  32   17   18 ar
  33   17   36 1
  34   18   19 ar
  35   18   21 1
  36   19   20 ar
  37   19   37 1
  38   20   38 1
  39   26   27 1
  40   26   39 1
  41   26   40 1
  42   27   28 2
  43   27   41 1
  44   28   42 1
  45   28   43 1

#	End of record

