#	Name: ASD01914360
#	Creating user name:	WinNT
#	Creation time:	15. 06. 2019 20:03

#	Modifying user name:	WinNT
#	Modification time:	15. 06. 2019 20:03

#	Program:	/corina/corina34_cracker 3.40 0067  02.08.2006

@<TRIPOS>MOLECULE
ASD01914360
  43   46    0    0    0
SMALL
NO_CHARGES


@<TRIPOS>ATOM
   1 C1            -0.1824     1.4329    -0.7907 C.ar    
   2 C2            -0.1584     0.0609    -0.6208 C.ar    
   3 C3             1.0331    -0.5827    -0.3418 C.ar    
   4 C4             2.2029     0.1439    -0.2325 C.ar    
   5 C5             2.1816     1.5205    -0.4030 C.ar    
   6 C6             0.9847     2.1640    -0.6824 C.ar    
   7 O7             3.3310     2.2376    -0.2956 O.3     
   8 C8             3.2339     3.6509    -0.4833 C.3     
   9 C9             4.5976     4.2731    -0.3281 C.2     
  10 N10            5.6985     3.5835    -0.0584 N.2     
  11 C11            6.6934     4.5844     0.0596 C.3     
  12 C12            6.1531     5.5902    -1.0571 C.3     
  13 O13            4.8462     5.6297    -0.4566 O.3     
  14 C14            8.1741     4.6658     0.0126 C.3     
  15 N15            8.2430     6.6738    -1.7597 N.am    
  16 C16            7.0240     6.7417    -1.2124 C.2     
  17 O17            6.6258     7.8205    -0.8265 O.2     
  18 C18            9.0589     7.8095    -1.8514 C.ar    
  19 C19            9.5675     8.3949    -0.6996 C.ar    
  20 C20           10.3714     9.5141    -0.7921 C.ar    
  21 C21           10.6702    10.0525    -2.0325 C.ar    
  22 C22           10.1636     9.4704    -3.1823 C.ar    
  23 C23            9.3644     8.3475    -3.0944 C.ar    
  24 F24           11.4568    11.1474    -2.1209 F       
  25 C25            8.6688     4.4464    -1.3972 C.2     
  26 C26            8.6862     5.4064    -2.2471 C.2     
  27 H27           -1.1136     1.9328    -1.0127 H       
  28 H28           -1.0719    -0.5089    -0.7058 H       
  29 H29            1.0492    -1.6544    -0.2088 H       
  30 H30            3.1333    -0.3593    -0.0142 H       
  31 H31            0.9655     3.2356    -0.8159 H       
  32 H32            2.8510     3.8592    -1.4823 H       
  33 H33            2.5563     4.0704     0.2603 H       
  34 H34            6.4186     5.1418     0.9551 H       
  35 H35            6.0912     5.0645    -2.0099 H       
  36 H36            8.4923     5.6497     0.3572 H       
  37 H37            8.5981     3.9034     0.6661 H       
  38 H38            9.3344     7.9755     0.2679 H       
  39 H39           10.7669     9.9700     0.1035 H       
  40 H40           10.3975     9.8920    -4.1487 H       
  41 H41            8.9694     7.8938    -3.9914 H       
  42 H42            9.0132     3.4667    -1.6938 H       
  43 H43            9.0150     5.2656    -3.2662 H       
@<TRIPOS>BOND
   1    1    2 ar
   2    1    6 ar
   3    1   27 1
   4    2    3 ar
   5    2   28 1
   6    3    4 ar
   7    3   29 1
   8    4    5 ar
   9    4   30 1
  10    5    6 ar
  11    5    7 1
  12    6   31 1
  13    7    8 1
  14    8    9 1
  15    8   32 1
  16    8   33 1
  17    9   10 2
  18    9   13 1
  19   10   11 1
  20   11   12 1
  21   11   14 1
  22   11   34 1
  23   12   13 1
  24   12   16 1
  25   12   35 1
  26   14   25 1
  27   14   36 1
  28   14   37 1
  29   15   16 am
  30   15   18 1
  31   15   26 1
  32   16   17 2
  33   18   19 ar
  34   18   23 ar
  35   19   20 ar
  36   19   38 1
  37   20   21 ar
  38   20   39 1
  39   21   22 ar
  40   21   24 1
  41   22   23 ar
  42   22   40 1
  43   23   41 1
  44   25   26 2
  45   25   42 1
  46   26   43 1

#	End of record

