#	Name: ASD08170119
#	Creating user name:	WinNT
#	Creation time:	15. 06. 2019 21:17

#	Modifying user name:	WinNT
#	Modification time:	15. 06. 2019 21:17

#	Program:	/corina/corina34_cracker 3.40 0067  02.08.2006

@<TRIPOS>MOLECULE
ASD08170119
  72   75    0    0    0
SMALL
NO_CHARGES


@<TRIPOS>ATOM
   1 C1            -0.0187     1.5258     0.0104 C.3     
   2 C2             0.0021    -0.0041     0.0020 C.3     
   3 C3             1.4167     2.0553    -0.0004 C.3     
   4 C4             1.3960     3.5852     0.0080 C.3     
   5 C5             2.8098     4.1068    -0.0027 C.2     
   6 C6            -1.4117    -0.5257     0.0127 C.2     
   7 S7             3.7994     4.4593     1.4143 S.3     
   8 C8             5.0770     4.9390     0.3786 C.2     
   9 N9             4.6867     4.8059    -0.8531 N.2     
  10 N10            3.5185     4.3715    -1.0541 N.2     
  11 S11           -2.3742    -0.8935     1.4445 S.3     
  12 N12           -2.1404    -0.7792    -1.0277 N.2     
  13 N13           -3.3061    -1.2119    -0.8091 N.2     
  14 C14           -3.6713    -1.3622     0.4283 C.2     
  15 N15           -4.9107    -1.8251     0.8572 N.am    
  16 C16           -5.8536    -2.1613    -0.0452 C.2     
  17 O17           -5.6213    -2.0602    -1.2312 O.2     
  18 N18            6.3249     5.3958     0.7887 N.am    
  19 C19            7.2495     5.7444    -0.1278 C.2     
  20 C20            8.6017     6.2394     0.3166 C.3     
  21 O21            6.9932     5.6598    -1.3102 O.2     
  22 C22           -7.1965    -2.6628     0.4196 C.3     
  23 C23            9.4419     6.5593    -0.8929 C.ar    
  24 C24           -8.0610    -2.9663    -0.7770 C.ar    
  25 C25           10.6376     5.8970    -1.0987 C.ar    
  26 C26           -9.2607    -2.3015    -0.9493 C.ar    
  27 C27           11.4083     6.1905    -2.2081 C.ar    
  28 C28           10.9831     7.1460    -3.1120 C.ar    
  29 C29            9.7869     7.8077    -2.9067 C.ar    
  30 C30            9.0141     7.5111    -1.7995 C.ar    
  31 C31          -10.0537    -2.5799    -2.0468 C.ar    
  32 C32           -9.6467    -3.5227    -2.9723 C.ar    
  33 C33           -8.4465    -4.1868    -2.8004 C.ar    
  34 C34           -7.6515    -3.9053    -1.7051 C.ar    
  35 C35           -7.0070    -3.9353     1.2477 C.3     
  36 O36           -6.2860    -3.6237     2.4415 O.3     
  37 C37           -6.0541    -4.7492     3.2909 C.3     
  38 C38            8.4294     7.5003     1.1659 C.3     
  39 O39            7.7326     7.1723     2.3696 O.3     
  40 C40            7.5184     8.2860     3.2390 C.3     
  41 H41           -0.5459     1.8868    -0.8726 H       
  42 H42           -0.5289     1.8773     0.9072 H       
  43 H43            0.5123    -0.3556    -0.8948 H       
  44 H44            0.5293    -0.3651     0.8851 H       
  45 H45            1.9439     1.6943     0.8826 H       
  46 H46            1.9269     1.7038    -0.8972 H       
  47 H47            0.8688     3.9463    -0.8751 H       
  48 H48            0.8858     3.9367     0.9048 H       
  49 H49           -5.0964    -1.9059     1.8058 H       
  50 H50            6.5298     5.4635     1.7344 H       
  51 H51            9.0948     5.4678     0.9077 H       
  52 H52           -7.6776    -1.8996     1.0312 H       
  53 H53           10.9699     5.1505    -0.3925 H       
  54 H54           -9.5786    -1.5649    -0.2263 H       
  55 H55           12.3429     5.6735    -2.3685 H       
  56 H56           11.5855     7.3758    -3.9783 H       
  57 H57            9.4548     8.5545    -3.6127 H       
  58 H58            8.0795     8.0281    -1.6391 H       
  59 H59          -10.9913    -2.0611    -2.1811 H       
  60 H60          -10.2666    -3.7407    -3.8294 H       
  61 H61           -8.1288    -4.9236    -3.5233 H       
  62 H62           -6.7139    -4.4241    -1.5709 H       
  63 H63           -7.9817    -4.3473     1.5090 H       
  64 H64           -6.4472    -4.6675     0.6658 H       
  65 H65           -7.0091    -5.1781     3.5946 H       
  66 H66           -5.4746    -5.4983     2.7514 H       
  67 H67           -5.5019    -4.4298     4.1747 H       
  68 H68            9.4094     7.9086     1.4131 H       
  69 H69            7.8582     8.2406     0.6056 H       
  70 H70            6.9283     9.0425     2.7218 H       
  71 H71            6.9840     7.9543     4.1293 H       
  72 H72            8.4794     8.7105     3.5292 H       
@<TRIPOS>BOND
   1    1    2 1
   2    1    3 1
   3    1   41 1
   4    1   42 1
   5    2    6 1
   6    2   43 1
   7    2   44 1
   8    3    4 1
   9    3   45 1
  10    3   46 1
  11    4    5 1
  12    4   47 1
  13    4   48 1
  14    5    7 1
  15    5   10 2
  16    6   11 1
  17    6   12 2
  18    7    8 1
  19    8    9 2
  20    8   18 1
  21    9   10 1
  22   11   14 1
  23   12   13 1
  24   13   14 2
  25   14   15 1
  26   15   16 am
  27   15   49 1
  28   16   17 2
  29   16   22 1
  30   18   19 am
  31   18   50 1
  32   19   20 1
  33   19   21 2
  34   20   23 1
  35   20   38 1
  36   20   51 1
  37   22   24 1
  38   22   35 1
  39   22   52 1
  40   23   25 ar
  41   23   30 ar
  42   24   26 ar
  43   24   34 ar
  44   25   27 ar
  45   25   53 1
  46   26   31 ar
  47   26   54 1
  48   27   28 ar
  49   27   55 1
  50   28   29 ar
  51   28   56 1
  52   29   30 ar
  53   29   57 1
  54   30   58 1
  55   31   32 ar
  56   31   59 1
  57   32   33 ar
  58   32   60 1
  59   33   34 ar
  60   33   61 1
  61   34   62 1
  62   35   36 1
  63   35   63 1
  64   35   64 1
  65   36   37 1
  66   37   65 1
  67   37   66 1
  68   37   67 1
  69   38   39 1
  70   38   68 1
  71   38   69 1
  72   39   40 1
  73   40   70 1
  74   40   71 1
  75   40   72 1

#	End of record

