#	Name: ASD01816858
#	Creating user name:	WinNT
#	Creation time:	15. 06. 2019 19:36

#	Modifying user name:	WinNT
#	Modification time:	15. 06. 2019 19:36

#	Program:	/corina/corina34_cracker 3.40 0067  02.08.2006

@<TRIPOS>MOLECULE
ASD01816858
  48   51    0    0    0
SMALL
NO_CHARGES


@<TRIPOS>ATOM
   1 C1            -0.0168     1.3893     0.0097 C.ar    
   2 C2             0.0021    -0.0041     0.0020 C.ar    
   3 C3             1.1795    -0.6881    -0.0129 C.ar    
   4 C4             2.3931     0.0172    -0.0207 C.ar    
   5 C5             2.3786     1.4366    -0.0130 C.ar    
   6 C6             1.1397     2.1078     0.0025 C.ar    
   7 C7             3.6295    -0.6558    -0.0356 C.ar    
   8 C8             4.7715     0.0916    -0.0421 C.ar    
   9 C9             4.6888     1.4921    -0.0340 C.ar    
  10 N10            3.5260     2.1140    -0.0195 N.ar    
  11 C11            5.9375     2.2913    -0.0408 C.2     
  12 N12            5.8759     3.6376    -0.0331 N.am    
  13 O13            7.0164     1.7325    -0.0533 O.2     
  14 C14            7.1098     4.4274    -0.0398 C.3     
  15 C15            6.8416     5.8023     0.5800 C.3     
  16 C16            3.6904    -2.1615    -0.0436 C.3     
  17 C17            3.5737    -2.6615    -1.4605 C.ar    
  18 C18            4.7031    -2.8482    -2.2421 C.ar    
  19 C19            2.3344    -2.9509    -2.0111 C.ar    
  20 C20            2.2656    -3.4079    -3.3135 C.ar    
  21 N21            3.3604    -3.5699    -4.0306 N.ar    
  22 C22            4.5569    -3.3091    -3.5384 C.ar    
  23 C23            8.1150     6.6479     0.4971 C.3     
  24 O24            8.5249     6.7569    -0.8675 O.3     
  25 C25            8.8350     5.5062    -1.4853 C.3     
  26 C26            7.5905     4.6147    -1.4821 C.3     
  27 Cl27           1.0882     3.8430     0.0117 Cl      
  28 O28            6.4620     5.6434     1.9484 O.3     
  29 Cl29           5.9624    -3.5410    -4.5306 Cl      
  30 H30           -0.9642     1.9077     0.0170 H       
  31 H31           -0.9302    -0.5492     0.0084 H       
  32 H32            1.1796    -1.7681    -0.0184 H       
  33 H33            5.7362    -0.3939    -0.0532 H       
  34 H34            5.0146     4.0837    -0.0231 H       
  35 H35            7.8766     3.9106     0.5373 H       
  36 H36            6.0391     6.2978     0.0336 H       
  37 H37            4.6397    -2.4890     0.3802 H       
  38 H38            2.8695    -2.5616     0.5515 H       
  39 H39            5.6846    -2.6364    -1.8443 H       
  40 H40            1.4339    -2.8211    -1.4291 H       
  41 H41            1.3039    -3.6354    -3.7491 H       
  42 H42            7.9178     7.6422     0.8980 H       
  43 H43            8.9057     6.1722     1.0773 H       
  44 H44            9.1565     5.6780    -2.5125 H       
  45 H45            9.6351     5.0155    -0.9310 H       
  46 H46            7.8366     3.6442    -1.9129 H       
  47 H47            6.8031     5.0862    -2.0701 H       
  48 H48            6.2766     6.4758     2.4043 H       
@<TRIPOS>BOND
   1    1    2 ar
   2    1    6 ar
   3    1   30 1
   4    2    3 ar
   5    2   31 1
   6    3    4 ar
   7    3   32 1
   8    4    5 ar
   9    4    7 ar
  10    5    6 ar
  11    5   10 ar
  12    6   27 1
  13    7    8 ar
  14    7   16 1
  15    8    9 ar
  16    8   33 1
  17    9   10 ar
  18    9   11 1
  19   11   12 am
  20   11   13 2
  21   12   14 1
  22   12   34 1
  23   14   15 1
  24   14   26 1
  25   14   35 1
  26   15   23 1
  27   15   28 1
  28   15   36 1
  29   16   17 1
  30   16   37 1
  31   16   38 1
  32   17   18 ar
  33   17   19 ar
  34   18   22 ar
  35   18   39 1
  36   19   20 ar
  37   19   40 1
  38   20   21 ar
  39   20   41 1
  40   21   22 ar
  41   22   29 1
  42   23   24 1
  43   23   42 1
  44   23   43 1
  45   24   25 1
  46   25   26 1
  47   25   44 1
  48   25   45 1
  49   26   46 1
  50   26   47 1
  51   28   48 1

#	End of record

