#	Name: ASD01816383
#	Creating user name:	WinNT
#	Creation time:	15. 06. 2019 19:35

#	Modifying user name:	WinNT
#	Modification time:	15. 06. 2019 19:35

#	Program:	/corina/corina34_cracker 3.40 0067  02.08.2006

@<TRIPOS>MOLECULE
ASD01816383
  53   59    0    0    0
SMALL
NO_CHARGES


@<TRIPOS>ATOM
   1 C1            -0.0167     1.3813     0.0096 C.ar    
   2 C2             0.0021    -0.0041     0.0020 C.ar    
   3 C3             1.1983    -0.6909    -0.0127 C.ar    
   4 C4             2.4015     0.0059    -0.0200 C.ar    
   5 C5             2.3790     1.4106    -0.0127 C.ar    
   6 C6             1.1663     2.0917     0.0022 C.ar    
   7 N7             3.6052    -0.6771    -0.0338 N.pl3   
   8 C8             4.7970    -0.0585    -0.0409 C.2     
   9 C9             4.8999     1.3103    -0.0354 C.2     
  10 C10            3.6670     2.1302    -0.0207 C.2     
  11 C11            5.9971     2.2730    -0.0402 C.2     
  12 N12            5.4245     3.4961    -0.0296 N.am    
  13 N13            4.0322     3.3799    -0.0181 N.2     
  14 O14            7.1910     2.0231    -0.0510 O.2     
  15 C15            3.5778    -2.1419    -0.0404 C.3     
  16 C16            3.5559    -2.6374    -1.4634 C.ar    
  17 C17            4.7440    -2.8867    -2.1256 C.ar    
  18 C18            4.7271    -3.3406    -3.4300 C.ar    
  19 C19            3.5157    -3.5469    -4.0761 C.ar    
  20 C20            2.3245    -3.2961    -3.4085 C.ar    
  21 C21            2.3477    -2.8474    -2.1024 C.ar    
  22 N22            3.4954    -4.0070    -5.4001 N.pl3   
  23 C23            2.3908    -4.2482    -6.1420 C.2     
  24 C24            2.7978    -4.6776    -7.3589 C.2     
  25 C25            4.1969    -4.6999    -7.3621 C.2     
  26 N26            4.6158    -4.2926    -6.1910 N.2     
  27 C27            6.1194     4.6964    -0.0299 C.2     
  28 N28            7.4029     4.8031    -0.0458 N.2     
  29 S29            5.3733     6.2883    -0.0161 S.3     
  30 C30            6.9629     7.0481    -0.0271 C.ar    
  31 C31            7.9331     6.0412    -0.0444 C.ar    
  32 C32            7.3390     8.3894    -0.0242 C.ar    
  33 C33            8.6717     8.7350    -0.0347 C.ar    
  34 C34            9.6446     7.7458    -0.0478 C.ar    
  35 C35            9.2928     6.4202    -0.0554 C.ar    
  36 H36           -0.9602     1.9068     0.0170 H       
  37 H37           -0.9289    -0.5515     0.0080 H       
  38 H38            1.2003    -1.7709    -0.0181 H       
  39 H39            1.1506     3.1715     0.0074 H       
  40 H40            5.6983    -0.6535    -0.0509 H       
  41 H41            4.4653    -2.5241     0.4639 H       
  42 H42            2.6858    -2.4909     0.4797 H       
  43 H43            5.6860    -2.7260    -1.6225 H       
  44 H44            5.6554    -3.5344    -3.9469 H       
  45 H45            1.3806    -3.4554    -3.9086 H       
  46 H46            1.4214    -2.6521    -1.5825 H       
  47 H47            1.3675    -4.1215    -5.8206 H       
  48 H48            2.1561    -4.9542    -8.1824 H       
  49 H49            4.8233    -4.9977    -8.1900 H       
  50 H50            6.5830     9.1605    -0.0140 H       
  51 H51            8.9598     9.7758    -0.0331 H       
  52 H52           10.6886     8.0223    -0.0564 H       
  53 H53           10.0612     5.6612    -0.0652 H       
@<TRIPOS>BOND
   1    1    2 ar
   2    1    6 ar
   3    1   36 1
   4    2    3 ar
   5    2   37 1
   6    3    4 ar
   7    3   38 1
   8    4    5 ar
   9    4    7 1
  10    5    6 ar
  11    5   10 1
  12    6   39 1
  13    7    8 1
  14    7   15 1
  15    8    9 2
  16    8   40 1
  17    9   10 1
  18    9   11 1
  19   10   13 2
  20   11   12 am
  21   11   14 2
  22   12   13 1
  23   12   27 1
  24   15   16 1
  25   15   41 1
  26   15   42 1
  27   16   17 ar
  28   16   21 ar
  29   17   18 ar
  30   17   43 1
  31   18   19 ar
  32   18   44 1
  33   19   20 ar
  34   19   22 1
  35   20   21 ar
  36   20   45 1
  37   21   46 1
  38   22   23 1
  39   22   26 1
  40   23   24 2
  41   23   47 1
  42   24   25 1
  43   24   48 1
  44   25   26 2
  45   25   49 1
  46   27   29 1
  47   27   28 2
  48   28   31 1
  49   29   30 1
  50   30   31 ar
  51   30   32 ar
  52   31   35 ar
  53   32   33 ar
  54   32   50 1
  55   33   34 ar
  56   33   51 1
  57   34   35 ar
  58   34   52 1
  59   35   53 1

#	End of record

