#	Name: ASD06170078
#	Creating user name:	WinNT
#	Creation time:	15. 06. 2019 21:05

#	Modifying user name:	WinNT
#	Modification time:	15. 06. 2019 21:05

#	Program:	/corina/corina34_cracker 3.40 0067  02.08.2006

@<TRIPOS>MOLECULE
ASD06170078
  67   71    0    0    0
SMALL
NO_CHARGES


@<TRIPOS>ATOM
   1 N1             0.0342     1.5244    -0.3377 N.pl3   
   2 N2            -0.0074     0.1395    -0.1507 N.am    
   3 C3             1.2327    -0.2889     0.1637 C.2     
   4 C4             2.0969     0.9021     0.1724 C.2     
   5 C5             1.2882     1.9759    -0.1447 C.2     
   6 C6             3.5353     0.9413     0.4621 C.2     
   7 O7             4.1327     2.0012     0.4352 O.2     
   8 N8             4.1945    -0.1964     0.7580 N.am    
   9 O9             1.5703    -1.4350     0.3946 O.2     
  10 C10            1.7341     3.4111    -0.2565 C.3     
  11 C11           -1.1146     2.3596    -0.6965 C.3     
  12 C12           -1.7070     2.9830     0.5689 C.3     
  13 C13           -2.9068     3.8553     0.1941 C.3     
  14 O14           -2.1304     1.9468     1.4571 O.3     
  15 C15            5.5902    -0.1880     0.8703 C.ar    
  16 C16            6.2494     0.9735     1.2516 C.ar    
  17 C17            7.6271     0.9807     1.3625 C.ar    
  18 C18            8.3515    -0.1743     1.0925 C.ar    
  19 C19            7.6924    -1.3330     0.7115 C.ar    
  20 C20            6.3150    -1.3423     0.6060 C.ar    
  21 O21            9.7071    -0.1677     1.2016 O.3     
  22 N22           11.3222    -0.1147     4.9960 N.ar    
  23 C23           10.0232    -0.0263     4.8302 C.ar    
  24 C24            9.4434    -0.0406     3.5682 C.ar    
  25 C25           10.2453    -0.1507     2.4455 C.ar    
  26 C26           11.6427    -0.2453     2.6359 C.ar    
  27 C27           12.5190    -0.3589     1.5468 C.ar    
  28 C28           13.8598    -0.4476     1.7626 C.ar    
  29 C29           14.3780    -0.4275     3.0607 C.ar    
  30 C30           13.5439    -0.3175     4.1503 C.ar    
  31 C31           12.1567    -0.2235     3.9554 C.ar    
  32 O32           15.7201    -0.5180     3.2492 O.3     
  33 C33           16.5334    -0.6306     2.0796 C.3     
  34 F34            8.2694     2.1101     1.7329 F       
  35 C35           -1.1442    -0.6666    -0.2692 C.ar    
  36 C36           -2.0166    -0.4870    -1.3349 C.ar    
  37 C37           -3.1387    -1.2856    -1.4492 C.ar    
  38 C38           -3.3929    -2.2633    -0.5028 C.ar    
  39 C39           -2.5259    -2.4437     0.5587 C.ar    
  40 C40           -1.3999    -1.6520     0.6753 C.ar    
  41 Cl41          -4.2304    -1.0621    -2.7803 Cl      
  42 H42            3.7020    -1.0211     0.8931 H       
  43 H43            1.6373     3.8982     0.7138 H       
  44 H44            2.7752     3.4441    -0.5774 H       
  45 H45            1.1122     3.9289    -0.9867 H       
  46 H46           -0.7917     3.1501    -1.3740 H       
  47 H47           -1.8704     1.7465    -1.1875 H       
  48 H48           -0.9513     3.5962     1.0599 H       
  49 H49           -3.6626     3.2422    -0.2969 H       
  50 H50           -3.3289     4.2994     1.0957 H       
  51 H51           -2.5839     4.6458    -0.4834 H       
  52 H52           -2.8040     1.3610     1.0854 H       
  53 H53            5.6858     1.8707     1.4609 H       
  54 H54            8.2558    -2.2301     0.5011 H       
  55 H55            5.8021    -2.2466     0.3135 H       
  56 H56            9.3876     0.0599     5.6991 H       
  57 H57            8.3711     0.0331     3.4633 H       
  58 H58           12.1307    -0.3762     0.5392 H       
  59 H59           14.5312    -0.5350     0.9212 H       
  60 H60           13.9542    -0.3036     5.1492 H       
  61 H61           16.2540    -1.5280     1.5278 H       
  62 H62           16.3848     0.2453     1.4481 H       
  63 H63           17.5818    -0.6948     2.3709 H       
  64 H64           -1.8184     0.2761    -2.0731 H       
  65 H65           -4.2705    -2.8861    -0.5937 H       
  66 H66           -2.7269    -3.2073     1.2954 H       
  67 H67           -0.7210    -1.7965     1.5028 H       
@<TRIPOS>BOND
   1    1    2 1
   2    1    5 1
   3    1   11 1
   4    2    3 am
   5    2   35 1
   6    3    4 1
   7    3    9 2
   8    4    5 2
   9    4    6 1
  10    5   10 1
  11    6    7 2
  12    6    8 am
  13    8   15 1
  14    8   42 1
  15   10   43 1
  16   10   44 1
  17   10   45 1
  18   11   12 1
  19   11   46 1
  20   11   47 1
  21   12   13 1
  22   12   14 1
  23   12   48 1
  24   13   49 1
  25   13   50 1
  26   13   51 1
  27   14   52 1
  28   15   16 ar
  29   15   20 ar
  30   16   17 ar
  31   16   53 1
  32   17   18 ar
  33   17   34 1
  34   18   19 ar
  35   18   21 1
  36   19   20 ar
  37   19   54 1
  38   20   55 1
  39   21   25 1
  40   22   23 ar
  41   22   31 ar
  42   23   24 ar
  43   23   56 1
  44   24   25 ar
  45   24   57 1
  46   25   26 ar
  47   26   27 ar
  48   26   31 ar
  49   27   28 ar
  50   27   58 1
  51   28   29 ar
  52   28   59 1
  53   29   30 ar
  54   29   32 1
  55   30   31 ar
  56   30   60 1
  57   32   33 1
  58   33   61 1
  59   33   62 1
  60   33   63 1
  61   35   36 ar
  62   35   40 ar
  63   36   37 ar
  64   36   64 1
  65   37   38 ar
  66   37   41 1
  67   38   39 ar
  68   38   65 1
  69   39   40 ar
  70   39   66 1
  71   40   67 1

#	End of record

