#	Name: ASD03731465
#	Creating user name:	WinNT
#	Creation time:	15. 06. 2019 20:45

#	Modifying user name:	WinNT
#	Modification time:	15. 06. 2019 20:45

#	Program:	/corina/corina34_cracker 3.40 0067  02.08.2006

@<TRIPOS>MOLECULE
ASD03731465
  62   68    0    0    0
SMALL
NO_CHARGES


@<TRIPOS>ATOM
   1 C1            -0.0187     1.5258     0.0104 C.3     
   2 C2             0.0021    -0.0041     0.0020 C.3     
   3 C3             1.3165     0.7789    -0.0063 C.3     
   4 C4            -0.4420     2.2229    -1.2568 C.2     
   5 O5            -0.7498     1.5724    -2.2330 O.2     
   6 N6            -0.4784     3.5693    -1.3053 N.am    
   7 C7            -0.3780    -0.7121     1.2769 C.ar    
   8 C8            -1.4563    -1.5770     1.2921 C.ar    
   9 C9            -1.8049    -2.2265     2.4615 C.ar    
  10 C10           -1.0750    -2.0114     3.6156 C.ar    
  11 C11            0.0038    -1.1472     3.6001 C.ar    
  12 C12            0.3551    -0.5011     2.4297 C.ar    
  13 C13           -0.8899     4.2470    -2.5372 C.3     
  14 C14           -0.8443     5.7616    -2.3257 C.3     
  15 C15           -1.2741     6.4694    -3.6123 C.3     
  16 O16            2.3694    10.7520     0.8683 O.3     
  17 C17            2.7644    12.0462     1.3602 C.3     
  18 O18            2.9083    12.8370     0.1657 O.3     
  19 C19            2.0664    12.2734    -0.7499 C.ar    
  20 C20            1.7361    10.9909    -0.3178 C.ar    
  21 C21            1.5457    12.7592    -1.9358 C.ar    
  22 C22            0.6926    11.9739    -2.7054 C.ar    
  23 C23            0.3766    10.6913    -2.2675 C.ar    
  24 C24            0.8893    10.2064    -1.0824 C.ar    
  25 O25            0.0648    12.2631    -3.8811 O.3     
  26 C26           -0.5275    10.0924    -3.3114 C.3     
  27 C27           -0.3566    11.0369    -4.5090 C.3     
  28 N28           -1.2304     7.9197    -3.4098 N.am    
  29 C29           -0.1448     8.6810    -3.6524 C.2     
  30 C30           -1.9548    10.0185    -2.8561 C.ar    
  31 C31           -2.8632    10.9559    -2.4175 C.ar    
  32 C32           -4.1419    10.5672    -2.0597 C.ar    
  33 C33           -4.5051     9.2353    -2.1431 C.ar    
  34 C34           -3.5985     8.2926    -2.5809 C.ar    
  35 C35           -2.3092     8.6748    -2.9435 C.ar    
  36 O36            0.9302     8.3006    -4.0656 O.2     
  37 H37           -0.3072     2.0201     0.9381 H       
  38 H38           -0.2904    -0.5063    -0.9201 H       
  39 H39            1.8888     0.7918    -0.9339 H       
  40 H40            1.9064     0.7818     0.9103 H       
  41 H41           -0.2322     4.0896    -0.5246 H       
  42 H42           -2.0265    -1.7450     0.3904 H       
  43 H43           -2.6478    -2.9017     2.4735 H       
  44 H44           -1.3479    -2.5183     4.5294 H       
  45 H45            0.5738    -0.9789     4.5019 H       
  46 H46            1.2002     0.1713     2.4167 H       
  47 H47           -0.2131     3.9726    -3.3464 H       
  48 H48           -1.9054     3.9466    -2.7954 H       
  49 H49           -1.5212     6.0360    -1.5166 H       
  50 H50            0.1712     6.0620    -2.0676 H       
  51 H51           -0.5972     6.1950    -4.4214 H       
  52 H52           -2.2896     6.1690    -3.8705 H       
  53 H53            1.9908    12.4634     2.0048 H       
  54 H54            3.7133    11.9803     1.8924 H       
  55 H55            1.8030    13.7545    -2.2668 H       
  56 H56            0.6297     9.2120    -0.7502 H       
  57 H57           -1.3033    11.1748    -5.0314 H       
  58 H58            0.4111    10.6660    -5.1881 H       
  59 H59           -2.5773    11.9954    -2.3530 H       
  60 H60           -4.8549    11.3022    -1.7165 H       
  61 H61           -5.5032     8.9319    -1.8637 H       
  62 H62           -3.8893     7.2543    -2.6428 H       
@<TRIPOS>BOND
   1    1    2 1
   2    1    3 1
   3    1    4 1
   4    1   37 1
   5    2    3 1
   6    2    7 1
   7    2   38 1
   8    3   39 1
   9    3   40 1
  10    4    5 2
  11    4    6 am
  12    6   13 1
  13    6   41 1
  14    7    8 ar
  15    7   12 ar
  16    8    9 ar
  17    8   42 1
  18    9   10 ar
  19    9   43 1
  20   10   11 ar
  21   10   44 1
  22   11   12 ar
  23   11   45 1
  24   12   46 1
  25   13   14 1
  26   13   47 1
  27   13   48 1
  28   14   15 1
  29   14   49 1
  30   14   50 1
  31   15   28 1
  32   15   51 1
  33   15   52 1
  34   16   17 1
  35   16   20 1
  36   17   18 1
  37   17   53 1
  38   17   54 1
  39   18   19 1
  40   19   20 ar
  41   19   21 ar
  42   20   24 ar
  43   21   22 ar
  44   21   55 1
  45   22   23 ar
  46   22   25 1
  47   23   24 ar
  48   23   26 1
  49   24   56 1
  50   25   27 1
  51   26   27 1
  52   26   29 1
  53   26   30 1
  54   27   57 1
  55   27   58 1
  56   28   29 am
  57   28   35 1
  58   29   36 2
  59   30   31 ar
  60   30   35 ar
  61   31   32 ar
  62   31   59 1
  63   32   33 ar
  64   32   60 1
  65   33   34 ar
  66   33   61 1
  67   34   35 ar
  68   34   62 1

#	End of record

