#	Name: ASD03092894
#	Creating user name:	WinNT
#	Creation time:	15. 06. 2019 20:33

#	Modifying user name:	WinNT
#	Modification time:	15. 06. 2019 20:33

#	Program:	/corina/corina34_cracker 3.40 0067  02.08.2006

@<TRIPOS>MOLECULE
ASD03092894
  49   53    0    0    0
SMALL
NO_CHARGES


@<TRIPOS>ATOM
   1 N1            -0.8539    -1.3400    -1.0359 N.am    
   2 S2            -0.0872    -0.3377     0.0364 S.o2    
   3 O3            -0.1905     0.9753    -0.4973 O.2     
   4 O4            -0.5637    -0.6915     1.3275 O.2     
   5 C5             1.6247    -0.7536     0.0066 C.ar    
   6 C6             2.1132    -1.7204     0.8673 C.ar    
   7 C7             3.4524    -2.0521     0.8504 C.ar    
   8 C8             4.3165    -1.4097    -0.0381 C.ar    
   9 C9             5.7507    -1.7599    -0.0619 C.2     
  10 S10            6.7076    -2.1274    -1.4948 S.3     
  11 C11            8.0937    -2.3722    -0.5263 C.2     
  12 N12            7.8224    -2.1887     0.7191 N.2     
  13 C13            6.5805    -1.8520     1.0277 C.2     
  14 C14            6.1280    -1.6029     2.4160 C.ar    
  15 C15            5.2868    -0.5260     2.6954 C.ar    
  16 C16            4.8681    -0.2989     3.9902 C.ar    
  17 C17            5.2814    -1.1377     5.0113 C.ar    
  18 Cl18           4.7507    -0.8460     6.6383 Cl      
  19 C19            6.1161    -2.2084     4.7396 C.ar    
  20 C20            6.5370    -2.4477     3.4477 C.ar    
  21 C21            9.4516    -2.7523    -1.0581 C.3     
  22 C22           10.6251    -2.7340    -0.0766 C.3     
  23 C23           10.0593    -4.0680    -0.5677 C.3     
  24 C24            9.7288    -2.3460    -2.4826 C.2     
  25 O25           10.4070    -3.0511    -3.1905 O.2     
  26 C26            9.1596    -1.0598    -3.0237 C.3     
  27 C27           10.0436    -0.2354    -3.9616 C.3     
  28 C28            8.8424    -1.0016    -4.5193 C.3     
  29 C29            3.8170    -0.4331    -0.9058 C.ar    
  30 F30            4.6455     0.1937    -1.7695 F       
  31 C31            2.4727    -0.1157    -0.8813 C.ar    
  32 H32           -0.3445    -1.9987    -1.5334 H       
  33 H33           -1.8130    -1.2710    -1.1636 H       
  34 H34            1.4443    -2.2168     1.5547 H       
  35 H35            3.8314    -2.8069     1.5235 H       
  36 H36            4.9641     0.1291     1.8997 H       
  37 H37            4.2170     0.5349     4.2077 H       
  38 H38            6.4355    -2.8595     5.5399 H       
  39 H39            7.1851    -3.2854     3.2363 H       
  40 H40           11.5980    -2.4278    -0.4611 H       
  41 H41           10.4151    -2.4470     0.9537 H       
  42 H42            9.4771    -4.6586     0.1395 H       
  43 H43           10.6600    -4.6395    -1.2753 H       
  44 H44            8.4990    -0.5169    -2.3476 H       
  45 H45            9.9649     0.8501    -3.9027 H       
  46 H46           11.0369    -0.6234    -4.1873 H       
  47 H47            9.0455    -1.8936    -5.1119 H       
  48 H48            7.9734    -0.4201    -4.8272 H       
  49 H49            2.0837     0.6347    -1.5536 H       
@<TRIPOS>BOND
   1    1    2 am
   2    1   32 1
   3    1   33 1
   4    2    3 2
   5    2    4 2
   6    2    5 1
   7    5   31 ar
   8    5    6 ar
   9    6    7 ar
  10    6   34 1
  11    7    8 ar
  12    7   35 1
  13    8    9 1
  14    8   29 ar
  15    9   13 2
  16    9   10 1
  17   10   11 1
  18   11   12 2
  19   11   21 1
  20   12   13 1
  21   13   14 1
  22   14   20 ar
  23   14   15 ar
  24   15   16 ar
  25   15   36 1
  26   16   17 ar
  27   16   37 1
  28   17   18 1
  29   17   19 ar
  30   19   20 ar
  31   19   38 1
  32   20   39 1
  33   21   23 1
  34   21   22 1
  35   21   24 1
  36   22   23 1
  37   22   40 1
  38   22   41 1
  39   23   42 1
  40   23   43 1
  41   24   25 2
  42   24   26 1
  43   26   28 1
  44   26   27 1
  45   26   44 1
  46   27   28 1
  47   27   45 1
  48   27   46 1
  49   28   47 1
  50   28   48 1
  51   29   30 1
  52   29   31 ar
  53   31   49 1

#	End of record

