#	Name: ASD03750001
#	Creating user name:	WinNT
#	Creation time:	15. 06. 2019 20:47

#	Modifying user name:	WinNT
#	Modification time:	15. 06. 2019 20:47

#	Program:	/corina/corina34_cracker 3.40 0067  02.08.2006

@<TRIPOS>MOLECULE
ASD03750001
  38   39    0    0    0
SMALL
NO_CHARGES


@<TRIPOS>ATOM
   1 C1             0.1597     1.2308    -0.3876 C.ar    
   2 C2             0.0128    -0.0291     0.1974 C.ar    
   3 C3             1.0726    -0.5888     0.9149 C.ar    
   4 C4             2.2628     0.1071     1.0430 C.ar    
   5 C5             2.4036     1.3587     0.4604 C.ar    
   6 C6             1.3539     1.9187    -0.2538 C.ar    
   7 C7            -1.2564    -0.7654     0.0584 C.2     
   8 C8            -1.2453    -2.0989    -0.0982 C.2     
   9 C9             0.0273    -2.8022    -0.3364 C.ar    
  10 C10            1.0139    -2.2154    -1.1341 C.ar    
  11 C11            2.2025    -2.8770    -1.3540 C.ar    
  12 C12            2.4209    -4.1251    -0.7849 C.ar    
  13 C13            1.4435    -4.7121     0.0085 C.ar    
  14 C14            0.2542    -4.0556     0.2393 C.ar    
  15 O15            1.4980     3.1446    -0.8225 O.3     
  16 C16            2.7562     3.7984    -0.6446 C.3     
  17 O17            3.2946    -0.4363     1.7409 O.3     
  18 C18            4.4934     0.3360     1.8333 C.3     
  19 O19            3.5939    -4.7739    -1.0053 O.3     
  20 C20            3.7529    -6.0538    -0.3900 C.3     
  21 H21           -0.6553     1.6657    -0.9471 H       
  22 H22            0.9637    -1.5624     1.3693 H       
  23 H23            3.3333     1.8986     0.5632 H       
  24 H24           -2.1954    -0.2323     0.0824 H       
  25 H25           -2.1692    -2.6561    -0.0495 H       
  26 H26            0.8447    -1.2454    -1.5776 H       
  27 H27            2.9654    -2.4245    -1.9702 H       
  28 H28            1.6176    -5.6829     0.4486 H       
  29 H29           -0.5052    -4.5128     0.8563 H       
  30 H30            3.5488     3.1830    -1.0703 H       
  31 H31            2.7374     4.7654    -1.1472 H       
  32 H32            2.9421     3.9454     0.4193 H       
  33 H33            4.8830     0.5233     0.8327 H       
  34 H34            4.2769     1.2857     2.3226 H       
  35 H35            5.2346    -0.2118     2.4152 H       
  36 H36            3.6751    -5.9490     0.6921 H       
  37 H37            2.9740    -6.7277    -0.7467 H       
  38 H38            4.7310    -6.4611    -0.6462 H       
@<TRIPOS>BOND
   1    1    2 ar
   2    1    6 ar
   3    1   21 1
   4    2    3 ar
   5    2    7 1
   6    3    4 ar
   7    3   22 1
   8    4    5 ar
   9    4   17 1
  10    5    6 ar
  11    5   23 1
  12    6   15 1
  13    7    8 2
  14    7   24 1
  15    8    9 1
  16    8   25 1
  17    9   10 ar
  18    9   14 ar
  19   10   11 ar
  20   10   26 1
  21   11   12 ar
  22   11   27 1
  23   12   13 ar
  24   12   19 1
  25   13   14 ar
  26   13   28 1
  27   14   29 1
  28   15   16 1
  29   16   30 1
  30   16   31 1
  31   16   32 1
  32   17   18 1
  33   18   33 1
  34   18   34 1
  35   18   35 1
  36   19   20 1
  37   20   36 1
  38   20   37 1
  39   20   38 1

#	End of record

