#	Name: ASD05250041
#	Creating user name:	WinNT
#	Creation time:	15. 06. 2019 20:58

#	Modifying user name:	WinNT
#	Modification time:	15. 06. 2019 20:58

#	Program:	/corina/corina34_cracker 3.40 0067  02.08.2006

@<TRIPOS>MOLECULE
ASD05250041
  40   42    0    0    0
SMALL
NO_CHARGES


@<TRIPOS>ATOM
   1 C1            -0.0187     1.5258     0.0104 C.3     
   2 C2             0.0021    -0.0041     0.0020 C.3     
   3 O3             0.5662    -0.4660    -1.2270 O.3     
   4 C4            -1.4266    -0.5342     0.1385 C.3     
   5 O5            -1.9907    -0.0723     1.3675 O.3     
   6 C6            -1.4059    -2.0641     0.1301 C.3     
   7 C7            -2.8413    -2.5937     0.1410 C.3     
   8 C8             3.1863     1.1338    -2.8205 C.2     
   9 N9             2.2738     2.1543    -2.5555 N.3     
  10 C10            2.1967     2.2479    -1.1355 C.2     
  11 C11            3.3949     2.7309    -0.6980 C.2     
  12 C12            4.2135     2.9307    -1.9748 C.3     
  13 N13            4.3835     1.5355    -2.4920 N.2     
  14 N14            3.3492     2.8261     0.6526 N.pl3   
  15 C15            1.3951     2.0474    -0.0003 C.2     
  16 C16            2.1212     2.4074     1.0807 C.2     
  17 O17            5.3818     3.7488    -1.8869 O.3     
  18 N18            3.0895     3.3586    -2.8983 N.3     
  19 P19           -4.1601    -4.9177     0.1411 P.3     
  20 O20           -5.0041    -4.5329     1.2943 O.2     
  21 O21           -2.8219    -4.0225     0.1331 O.3     
  22 O22           -3.7642    -6.4736     0.2613 O.3     
  23 O23           -4.9759    -4.6755    -1.2256 O.3     
  24 H24           -0.5459     1.8868    -0.8726 H       
  25 H25           -0.5289     1.8773     0.9072 H       
  26 H26            0.6044    -0.3639     0.8362 H       
  27 H27            0.0804    -0.1829    -2.0137 H       
  28 H28           -2.0289    -0.1745    -0.6956 H       
  29 H29           -1.5049    -0.3554     2.1543 H       
  30 H30           -0.8957    -2.4156    -0.7667 H       
  31 H31           -0.8787    -2.4252     1.0132 H       
  32 H32           -3.3514    -2.2421     1.0378 H       
  33 H33           -3.3684    -2.2326    -0.7421 H       
  34 H34            2.9408     0.1643    -3.2282 H       
  35 H35            4.0695     3.1394     1.2217 H       
  36 H36            1.7879     2.3707     2.1073 H       
  37 H37            5.8609     3.8413    -2.7218 H       
  38 H38            3.3844     3.3330    -3.8629 H       
  39 H39           -4.5231    -7.0728     0.2720 H       
  40 H40           -4.4825    -4.9069    -2.0244 H       
@<TRIPOS>BOND
   1    1    2 1
   2    1   15 1
   3    1   24 1
   4    1   25 1
   5    2    3 1
   6    2    4 1
   7    2   26 1
   8    3   27 1
   9    4    5 1
  10    4    6 1
  11    4   28 1
  12    5   29 1
  13    6    7 1
  14    6   30 1
  15    6   31 1
  16    7   21 1
  17    7   32 1
  18    7   33 1
  19    8    9 1
  20    8   13 2
  21    8   34 1
  22    9   10 1
  23    9   18 1
  24   10   11 2
  25   10   15 1
  26   11   12 1
  27   11   14 1
  28   12   13 1
  29   12   17 1
  30   12   18 1
  31   14   16 1
  32   14   35 1
  33   15   16 2
  34   16   36 1
  35   17   37 1
  36   18   38 1
  37   19   20 2
  38   19   21 1
  39   19   22 1
  40   19   23 1
  41   22   39 1
  42   23   40 1

#	End of record

