#	Name: ASD01883125
#	Creating user name:	WinNT
#	Creation time:	15. 06. 2019 19:45

#	Modifying user name:	WinNT
#	Modification time:	15. 06. 2019 19:45

#	Program:	/corina/corina34_cracker 3.40 0067  02.08.2006

@<TRIPOS>MOLECULE
ASD01883125
  35   36    0    0    0
SMALL
NO_CHARGES


@<TRIPOS>ATOM
   1 N1            -0.0162     1.3415     0.0094 N.am    
   2 C2             0.0021    -0.0041     0.0020 C.2     
   3 C3            -1.2144    -0.7274     0.0102 C.2     
   4 C4            -2.4281    -0.0089     0.0261 C.2     
   5 C5            -2.3786     1.4027     0.0332 C.2     
   6 C6            -1.1855     2.0348     0.0299 C.2     
   7 O7             1.0660    -0.5997    -0.0122 O.2     
   8 C8            -1.2131    -2.1594     0.0021 C.1     
   9 N9            -1.2121    -3.2954    -0.0044 N.1     
  10 C10            1.2518     2.0753     0.0013 C.3     
  11 C11            1.3200     2.9617    -1.2440 C.3     
  12 C12            1.3536     2.0818    -2.4951 C.3     
  13 C13           -3.7164    -0.7137     0.0347 C.2     
  14 C14           -4.6275    -0.6873     1.0523 C.2     
  15 C15           -5.7512    -1.4391     0.7958 C.2     
  16 C16           -5.7604    -2.0590    -0.3892 C.2     
  17 S17           -4.3366    -1.7208    -1.2664 S.3     
  18 C18            1.4218     2.9681    -3.7404 C.3     
  19 C19            1.3439     2.9483     1.2544 C.3     
  20 H20           -3.2940     1.9757     0.0451 H       
  21 H21           -1.1596     3.1145     0.0354 H       
  22 H22            2.0809     1.3678    -0.0105 H       
  23 H23            0.4433     3.6085    -1.2780 H       
  24 H24            2.2215     3.5733    -1.2056 H       
  25 H25            2.2303     1.4350    -2.4611 H       
  26 H26            0.4521     1.4702    -2.5335 H       
  27 H27           -4.4803    -0.1322     1.9670 H       
  28 H28           -6.5658    -1.5226     1.4999 H       
  29 H29           -6.5641    -2.6864    -0.7454 H       
  30 H30            0.5451     3.6149    -3.7744 H       
  31 H31            2.3233     3.5797    -3.7020 H       
  32 H32            1.4457     2.3413    -4.6317 H       
  33 H33            1.2953     2.3168     2.1415 H       
  34 H34            2.2873     3.4942     1.2483 H       
  35 H35            0.5148     3.6557     1.2661 H       
@<TRIPOS>BOND
   1    1    2 am
   2    1   10 1
   3    1    6 1
   4    2    3 1
   5    2    7 2
   6    3    4 2
   7    3    8 1
   8    4    5 1
   9    4   13 1
  10    5    6 2
  11    5   20 1
  12    6   21 1
  13    8    9 3
  14   10   11 1
  15   10   19 1
  16   10   22 1
  17   11   12 1
  18   11   23 1
  19   11   24 1
  20   12   18 1
  21   12   25 1
  22   12   26 1
  23   13   14 2
  24   13   17 1
  25   14   15 1
  26   14   27 1
  27   15   16 2
  28   15   28 1
  29   16   17 1
  30   16   29 1
  31   18   30 1
  32   18   31 1
  33   18   32 1
  34   19   33 1
  35   19   34 1
  36   19   35 1

#	End of record

