#	Name: ASD01915013
#	Creating user name:	WinNT
#	Creation time:	15. 06. 2019 20:04

#	Modifying user name:	WinNT
#	Modification time:	15. 06. 2019 20:04

#	Program:	/corina/corina34_cracker 3.40 0067  02.08.2006

@<TRIPOS>MOLECULE
ASD01915013
  16   16    0    0    0
SMALL
NO_CHARGES


@<TRIPOS>ATOM
   1 C1            -0.0169     1.3917     0.0097 C.ar    
   2 C2             0.0021    -0.0041     0.0020 C.ar    
   3 C3             1.2234    -0.6601    -0.0131 C.ar    
   4 C4             2.3827     0.1004    -0.0201 C.ar    
   5 C5             2.2894     1.4822    -0.0118 C.ar    
   6 N6             1.1182     2.0813     0.0026 N.ar    
   7 C7            -1.2696     2.0853     0.0194 C.1     
   8 N8            -2.2634     2.6356     0.0270 N.1     
   9 C9             3.7320    -0.5705    -0.0361 C.3     
  10 O10            4.1459    -0.7758    -1.3883 O.3     
  11 Cl11          -1.4817    -0.9052     0.0119 Cl      
  12 H12            1.2707    -1.7390    -0.0190 H       
  13 H13            3.1912     2.0765    -0.0168 H       
  14 H14            4.4583     0.0620     0.4742 H       
  15 H15            3.6659    -1.5318     0.4735 H       
  16 H16            5.0084    -1.2045    -1.4749 H       
@<TRIPOS>BOND
   1    1    2 ar
   2    1    6 ar
   3    1    7 1
   4    2    3 ar
   5    2   11 1
   6    3    4 ar
   7    3   12 1
   8    4    5 ar
   9    4    9 1
  10    5    6 ar
  11    5   13 1
  12    7    8 3
  13    9   10 1
  14    9   14 1
  15    9   15 1
  16   10   16 1

#	End of record

