#	Name: ASD07480033
#	Creating user name:	WinNT
#	Creation time:	15. 06. 2019 21:11

#	Modifying user name:	WinNT
#	Modification time:	15. 06. 2019 21:11

#	Program:	/corina/corina34_cracker 3.40 0067  02.08.2006

@<TRIPOS>MOLECULE
ASD07480033
  46   50    0    0    0
SMALL
NO_CHARGES


@<TRIPOS>ATOM
   1 C1             1.1164    -0.8297     1.0328 C.2     
   2 C2             0.0459    -0.1297     0.4462 C.2     
   3 N3             0.1919     1.1166     0.0606 N.2     
   4 N4             1.4151     1.7735     0.2257 N.pl3   
   5 C5             2.4756     1.1203     0.7929 C.2     
   6 C6             2.3179    -0.2168     1.2062 C.2     
   7 C7             1.8389     3.0419    -0.0783 C.2     
   8 C8             3.1587     3.1239     0.3172 C.2     
   9 N9             3.5100     1.9535     0.8361 N.2     
  10 N10           -1.1799    -0.7652     0.2725 N.pl3   
  11 C11           -2.4444    -0.0337     0.4496 C.3     
  12 C12           -3.3232    -0.2820    -0.7816 C.3     
  13 O13           -3.4304    -1.6896    -1.0072 O.3     
  14 C14           -2.1870    -2.3319    -1.2990 C.3     
  15 C15           -1.2499    -2.1872    -0.0998 C.3     
  16 C16            0.1241    -2.6862    -0.4662 C.ar    
  17 C17            0.6504    -3.7922     0.1734 C.ar    
  18 C18            1.9130    -4.2506    -0.1635 C.ar    
  19 C19            2.6464    -3.6000    -1.1409 C.ar    
  20 C20            2.1178    -2.4939    -1.7794 C.ar    
  21 C21            0.8552    -2.0407    -1.4463 C.ar    
  22 F22            2.4288    -5.3315     0.4615 F       
  23 C23            1.0393     4.1111    -0.7061 C.ar    
  24 C24           -0.2565     3.8380    -1.1505 C.ar    
  25 C25           -0.9926     4.8509    -1.7367 C.ar    
  26 C26           -0.4122     6.1066    -1.8614 C.ar    
  27 C27            0.8749     6.3088    -1.4003 C.ar    
  28 N28            1.5553     5.3292    -0.8400 N.ar    
  29 H29            0.9822    -1.8533     1.3499 H       
  30 H30            3.1424    -0.7497     1.6563 H       
  31 H31            3.7958     3.9906     0.2211 H       
  32 H32           -2.9544    -0.3932     1.3433 H       
  33 H33           -2.2410     1.0328     0.5465 H       
  34 H34           -4.3154     0.1360    -0.6109 H       
  35 H35           -2.8721     0.1931    -1.6527 H       
  36 H36           -2.3617    -3.3887    -1.5007 H       
  37 H37           -1.7317    -1.8643    -2.1721 H       
  38 H38           -1.6379    -2.7624     0.7408 H       
  39 H39            0.0775    -4.2987     0.9360 H       
  40 H40            3.6313    -3.9564    -1.4042 H       
  41 H41            2.6898    -1.9862    -2.5420 H       
  42 H42            0.4428    -1.1766    -1.9459 H       
  43 H43           -0.6772     2.8497    -1.0382 H       
  44 H44           -1.9969     4.6697    -2.0902 H       
  45 H45           -0.9619     6.9179    -2.3152 H       
  46 H46            1.3279     7.2845    -1.4968 H       
@<TRIPOS>BOND
   1    1    2 1
   2    1    6 2
   3    1   29 1
   4    2    3 2
   5    2   10 1
   6    3    4 1
   7    4    5 1
   8    4    7 1
   9    5    6 1
  10    5    9 2
  11    6   30 1
  12    7    8 2
  13    7   23 1
  14    8    9 1
  15    8   31 1
  16   10   11 1
  17   10   15 1
  18   11   12 1
  19   11   32 1
  20   11   33 1
  21   12   13 1
  22   12   34 1
  23   12   35 1
  24   13   14 1
  25   14   15 1
  26   14   36 1
  27   14   37 1
  28   15   16 1
  29   15   38 1
  30   16   17 ar
  31   16   21 ar
  32   17   18 ar
  33   17   39 1
  34   18   19 ar
  35   18   22 1
  36   19   20 ar
  37   19   40 1
  38   20   21 ar
  39   20   41 1
  40   21   42 1
  41   23   24 ar
  42   23   28 ar
  43   24   25 ar
  44   24   43 1
  45   25   26 ar
  46   25   44 1
  47   26   27 ar
  48   26   45 1
  49   27   28 ar
  50   27   46 1

#	End of record

