#	Name: ASD01850084
#	Creating user name:	WinNT
#	Creation time:	15. 06. 2019 19:38

#	Modifying user name:	WinNT
#	Modification time:	15. 06. 2019 19:38

#	Program:	/corina/corina34_cracker 3.40 0067  02.08.2006

@<TRIPOS>MOLECULE
ASD01850084
  63   67    0    0    0
SMALL
NO_CHARGES


@<TRIPOS>ATOM
   1 C1             8.4063     2.0576     0.9818 C.ar    
   2 C2             8.8857     3.1568     0.2947 C.ar    
   3 C3             8.0872     4.2740     0.1344 C.ar    
   4 C4             6.8094     4.2915     0.6609 C.ar    
   5 C5             6.3295     3.1916     1.3475 C.ar    
   6 C6             7.1283     2.0753     1.5089 C.ar    
   7 C7             3.3799     4.2639     0.2175 C.3     
   8 N8             4.2153     4.3809     1.4152 N.am    
   9 C9             4.3202     5.5649     2.0506 C.2     
  10 C10            5.2512     5.7089     3.2269 C.3     
  11 O11            3.6654     6.5144     1.6757 O.2     
  12 C12            5.4519     7.1935     3.5394 C.3     
  13 C13            4.6463     5.0067     4.4448 C.3     
  14 C14            5.6110     5.1254     5.6289 C.3     
  15 N15            5.9232     6.5449     5.8441 N.am    
  16 C16            6.4257     7.3370     4.7133 C.3     
  17 C17            7.2243     7.0474     8.2166 C.ar    
  18 C18            8.1866     8.0108     8.1264 C.ar    
  19 C19            9.3871     7.8579     8.8292 C.ar    
  20 C20            9.5891     6.7116     9.6218 C.ar    
  21 C21            8.5886     5.7453     9.6948 C.ar    
  22 C22            7.4235     5.9194     9.0035 C.ar    
  23 C23           10.5962     8.6645     8.9589 C.2     
  24 N24           11.4121     8.0332     9.7539 N.2     
  25 N25           10.8339     6.8336    10.1817 N.pl3   
  26 C26            4.9366     3.2110     1.9224 C.3     
  27 C27            4.1848     4.6959    -1.0099 C.3     
  28 C28            3.5355     4.5079    -2.3825 C.3     
  29 C29            3.6830     5.9115    -1.7918 C.3     
  30 C30            6.6054     0.8765     2.2577 C.3     
  31 F31            7.6351    -0.0561     2.4224 F       
  32 F32            6.1357     1.2790     3.5126 F       
  33 F33            5.5599     0.2938     1.5334 F       
  34 S34            5.7121     7.2390     7.3327 S.o2    
  35 O35            5.5533     8.6328     7.1067 O.2     
  36 O36            4.7474     6.4468     8.0117 O.2     
  37 H37            9.0285     1.1832     1.1032 H       
  38 H38            9.8842     3.1432    -0.1167 H       
  39 H39            8.4621     5.1332    -0.4019 H       
  40 H40            6.1859     5.1645     0.5363 H       
  41 H41            3.0608     3.2286     0.0967 H       
  42 H42            2.5040     4.9043     0.3214 H       
  43 H43            6.2127     5.2551     2.9867 H       
  44 H44            5.8609     7.6976     2.6637 H       
  45 H45            4.4945     7.6423     3.8040 H       
  46 H46            3.6965     5.4761     4.7008 H       
  47 H47            4.4819     3.9543     4.2135 H       
  48 H48            5.1434     4.7144     6.5237 H       
  49 H49            6.5280     4.5788     5.4093 H       
  50 H50            7.4092     6.9707     4.4190 H       
  51 H51            6.4958     8.3852     5.0039 H       
  52 H52            8.0228     8.8864     7.5157 H       
  53 H53            8.7325     4.8619    10.2992 H       
  54 H54            6.6504     5.1677     9.0634 H       
  55 H55           10.7814     9.6151     8.4810 H       
  56 H56           11.2476     6.1911    10.7792 H       
  57 H57            4.4095     2.3035     1.6282 H       
  58 H58            4.9930     3.2622     3.0097 H       
  59 H59            5.2630     4.5526    -0.9393 H       
  60 H60            4.1867     4.2413    -3.2150 H       
  61 H61            2.5350     4.0764    -2.4111 H       
  62 H62            2.7794     6.4035    -1.4317 H       
  63 H63            4.4311     6.5683    -2.2356 H       
@<TRIPOS>BOND
   1    1    2 ar
   2    1    6 ar
   3    1   37 1
   4    2    3 ar
   5    2   38 1
   6    3    4 ar
   7    3   39 1
   8    4    5 ar
   9    4   40 1
  10    5    6 ar
  11    5   26 1
  12    6   30 1
  13    7    8 1
  14    7   27 1
  15    7   41 1
  16    7   42 1
  17    8    9 am
  18    8   26 1
  19    9   10 1
  20    9   11 2
  21   10   12 1
  22   10   13 1
  23   10   43 1
  24   12   16 1
  25   12   44 1
  26   12   45 1
  27   13   14 1
  28   13   46 1
  29   13   47 1
  30   14   15 1
  31   14   48 1
  32   14   49 1
  33   15   34 am
  34   15   16 1
  35   16   50 1
  36   16   51 1
  37   17   34 1
  38   17   18 ar
  39   17   22 ar
  40   18   19 ar
  41   18   52 1
  42   19   20 ar
  43   19   23 1
  44   20   21 ar
  45   20   25 1
  46   21   22 ar
  47   21   53 1
  48   22   54 1
  49   23   24 2
  50   23   55 1
  51   24   25 1
  52   25   56 1
  53   26   57 1
  54   26   58 1
  55   27   28 1
  56   27   29 1
  57   27   59 1
  58   28   29 1
  59   28   60 1
  60   28   61 1
  61   29   62 1
  62   29   63 1
  63   30   31 1
  64   30   32 1
  65   30   33 1
  66   34   35 2
  67   34   36 2

#	End of record

