#	Name: ASD00170076
#	Creating user name:	WinNT
#	Creation time:	15. 06. 2019 18:31

#	Modifying user name:	WinNT
#	Modification time:	15. 06. 2019 18:31

#	Program:	/corina/corina34_cracker 3.40 0067  02.08.2006

@<TRIPOS>MOLECULE
ASD00170076
  98  104    0    0    0
SMALL
NO_CHARGES


@<TRIPOS>ATOM
   1 C1            -0.3862     1.3705    -1.0621 C.ar    
   2 C2            -0.4625     0.0097    -0.9884 C.ar    
   3 C3             0.7043    -0.7603    -1.0381 C.ar    
   4 C4             1.9500    -0.1362    -1.1640 C.ar    
   5 C5             2.0275     1.2245    -1.2382 C.ar    
   6 C6             0.8602     1.9956    -1.1880 C.ar    
   7 C7             0.9432     3.4632    -1.2675 C.2     
   8 C8             0.2899     4.3252    -0.4356 C.2     
   9 C9             0.5628     5.7132    -0.7542 C.2     
  10 C10            1.4180     5.8594    -1.8221 C.2     
  11 S11            1.9017     4.3481    -2.4403 S.3     
  12 C12           -0.5970     3.8925     0.6672 C.ar    
  13 C13           -0.0677     3.2194     1.7688 C.ar    
  14 C14           -0.9000     2.8185     2.7937 C.ar    
  15 C15           -2.2565     3.0822     2.7305 C.ar    
  16 C16           -2.7877     3.7494     1.6407 C.ar    
  17 C17           -1.9655     4.1609     0.6124 C.ar    
  18 N18            1.8343     7.0725    -2.3230 N.pl3   
  19 C19           -0.0105     6.8391    -0.0181 C.2     
  20 O20           -1.0255     7.3770    -0.4219 O.2     
  21 C21            0.6427     7.3246     1.2173 C.ar    
  22 C22            1.8673     6.7892     1.6196 C.ar    
  23 C23            0.0399     8.3241     1.9825 C.ar    
  24 C24            0.6545     8.7727     3.1332 C.ar    
  25 C25            1.8661     8.2344     3.5290 C.ar    
  26 C26            2.4714     7.2467     2.7724 C.ar    
  27 C27           -0.3301     2.0914     3.9844 C.3     
  28 C28            0.6213    -2.2307    -0.9575 C.2     
  29 N29            1.7453    -2.9728    -1.0054 N.am    
  30 C30            1.6628    -4.4333    -0.9253 C.3     
  31 C31            3.0701    -5.0286    -1.0022 C.3     
  32 C32            2.9839    -6.5539    -0.9185 C.3     
  33 C33            4.3912    -7.1492    -0.9954 C.3     
  34 C34            4.3050    -8.6745    -0.9118 C.3     
  35 C35            5.7124    -9.2698    -0.9887 C.3     
  36 N36            5.6298   -10.7303    -0.9085 N.pl3   
  37 C37            6.7840   -11.4923    -0.9578 C.ar    
  38 C38            6.7237   -12.8944    -0.8823 C.ar    
  39 N39            9.0734   -12.9490    -1.0598 N.ar    
  40 C40            9.0812   -11.6348    -1.1314 C.ar    
  41 N41            7.9746   -10.9156    -1.0831 N.ar    
  42 N42            5.7234   -13.7998    -0.7601 N.2     
  43 C43            6.2259   -15.0001    -0.7378 C.2     
  44 N44            7.5835   -14.9385    -0.8447 N.pl3   
  45 C45            7.9290   -13.6140    -0.9380 C.ar    
  46 C46            8.5046   -16.0776    -0.8568 C.3     
  47 O47            7.8643   -17.2479    -0.3034 O.3     
  48 C48            7.0166   -17.7525    -1.3583 C.3     
  49 C49            7.8547   -17.5968    -2.6466 C.3     
  50 C50            8.8561   -16.4696    -2.3091 C.3     
  51 O51            8.6719   -15.3569    -3.1866 O.3     
  52 O52            8.5481   -18.8106    -2.9426 O.3     
  53 C53            6.6829   -19.2256    -1.1147 C.3     
  54 O54            5.8726   -19.3432     0.0564 O.3     
  55 O55           -0.4614    -2.7734    -0.8477 O.2     
  56 F56            0.0424     3.0192     4.9629 F       
  57 F57           -1.2955     1.2243     4.5072 F       
  58 F58            0.7919     1.3556     3.5882 F       
  59 H59           -1.2874     1.9647    -1.0277 H       
  60 H60           -1.4240    -0.4726    -0.8912 H       
  61 H61            2.8506    -0.7312    -1.2020 H       
  62 H62            2.9893     1.7062    -1.3350 H       
  63 H63            0.9911     3.0123     1.8190 H       
  64 H64           -2.9039     2.7657     3.5350 H       
  65 H65           -3.8476     3.9522     1.5972 H       
  66 H66           -2.3805     4.6855    -0.2355 H       
  67 H67            1.5816     7.8948    -1.8748 H       
  68 H68            2.3803     7.1048    -3.1241 H       
  69 H69            2.3408     6.0182     1.0298 H       
  70 H70           -0.9055     8.7456     1.6743 H       
  71 H71            0.1890     9.5461     3.7263 H       
  72 H72            2.3433     8.5893     4.4305 H       
  73 H73            3.4189     6.8332     3.0847 H       
  74 H74            2.6089    -2.5399    -1.0930 H       
  75 H75            1.1981    -4.7197     0.0182 H       
  76 H76            1.0634    -4.8094    -1.7544 H       
  77 H77            3.5347    -4.7422    -1.9457 H       
  78 H78            3.6695    -4.6525    -0.1731 H       
  79 H79            2.5193    -6.8403     0.0250 H       
  80 H80            2.3845    -6.9300    -1.7476 H       
  81 H81            4.8558    -6.8628    -1.9389 H       
  82 H82            4.9906    -6.7731    -0.1664 H       
  83 H83            3.8404    -8.9609     0.0317 H       
  84 H84            3.7056    -9.0506    -1.7408 H       
  85 H85            6.1770    -8.9834    -1.9322 H       
  86 H86            6.3118    -8.8937    -0.1596 H       
  87 H87            4.7662   -11.1632    -0.8210 H       
  88 H88           10.0284   -11.1252    -1.2299 H       
  89 H89            5.6521   -15.9106    -0.6476 H       
  90 H90            9.4089   -15.8394    -0.2968 H       
  91 H91            6.1030   -17.1618    -1.4262 H       
  92 H92            7.2191   -17.3052    -3.4828 H       
  93 H93            9.8802   -16.8383    -2.3680 H       
  94 H94            8.8784   -15.5473    -4.1119 H       
  95 H95            7.9669   -19.5666    -3.1032 H       
  96 H96            6.1405   -19.6220    -1.9731 H       
  97 H97            7.6056   -19.7891    -0.9762 H       
  98 H98            5.6223   -20.2520     0.2720 H       
@<TRIPOS>BOND
   1    1    2 ar
   2    1    6 ar
   3    1   59 1
   4    2    3 ar
   5    2   60 1
   6    3    4 ar
   7    3   28 1
   8    4    5 ar
   9    4   61 1
  10    5    6 ar
  11    5   62 1
  12    6    7 1
  13    7    8 2
  14    7   11 1
  15    8    9 1
  16    8   12 1
  17    9   10 2
  18    9   19 1
  19   10   11 1
  20   10   18 1
  21   12   13 ar
  22   12   17 ar
  23   13   14 ar
  24   13   63 1
  25   14   15 ar
  26   14   27 1
  27   15   16 ar
  28   15   64 1
  29   16   17 ar
  30   16   65 1
  31   17   66 1
  32   18   67 1
  33   18   68 1
  34   19   20 2
  35   19   21 1
  36   21   23 ar
  37   21   22 ar
  38   22   26 ar
  39   22   69 1
  40   23   24 ar
  41   23   70 1
  42   24   25 ar
  43   24   71 1
  44   25   26 ar
  45   25   72 1
  46   26   73 1
  47   27   56 1
  48   27   57 1
  49   27   58 1
  50   28   29 am
  51   28   55 2
  52   29   30 1
  53   29   74 1
  54   30   31 1
  55   30   75 1
  56   30   76 1
  57   31   32 1
  58   31   77 1
  59   31   78 1
  60   32   33 1
  61   32   79 1
  62   32   80 1
  63   33   34 1
  64   33   81 1
  65   33   82 1
  66   34   35 1
  67   34   83 1
  68   34   84 1
  69   35   36 1
  70   35   85 1
  71   35   86 1
  72   36   37 1
  73   36   87 1
  74   37   38 ar
  75   37   41 ar
  76   38   45 ar
  77   38   42 1
  78   39   40 ar
  79   39   45 ar
  80   40   41 ar
  81   40   88 1
  82   42   43 2
  83   43   44 1
  84   43   89 1
  85   44   45 1
  86   44   46 1
  87   46   47 1
  88   46   50 1
  89   46   90 1
  90   47   48 1
  91   48   49 1
  92   48   53 1
  93   48   91 1
  94   49   50 1
  95   49   52 1
  96   49   92 1
  97   50   51 1
  98   50   93 1
  99   51   94 1
 100   52   95 1
 101   53   54 1
 102   53   96 1
 103   53   97 1
 104   54   98 1

#	End of record

