#	Name: ASD09740103
#	Creating user name:	WinNT
#	Creation time:	15. 06. 2019 21:22

#	Modifying user name:	WinNT
#	Modification time:	15. 06. 2019 21:22

#	Program:	/corina/corina34_cracker 3.40 0067  02.08.2006

@<TRIPOS>MOLECULE
ASD09740103
  55   59    0    0    0
SMALL
NO_CHARGES


@<TRIPOS>ATOM
   1 N1             0.0716     1.1245    -0.0859 N.2     
   2 O2             0.1282    -0.0867    -0.1000 O.3     
   3 C3             1.2743     1.6373    -0.0284 C.2     
   4 N4             2.1500     0.6121    -0.0056 N.2     
   5 C5             1.4108    -0.4849    -0.0516 C.2     
   6 C6             1.8983    -1.8702    -0.0500 C.2     
   7 C7             1.6125     3.0824     0.0055 C.ar    
   8 C8             0.5995     4.0381    -0.0235 C.ar    
   9 C9             0.9196     5.3806     0.0088 C.ar    
  10 C10            2.2430     5.7773     0.0697 C.ar    
  11 C11            3.2529     4.8322     0.0988 C.ar    
  12 C12            2.9439     3.4875     0.0723 C.ar    
  13 C13            1.1156    -2.9703    -0.0979 C.2     
  14 C14            1.8286    -4.1598    -0.0841 C.2     
  15 C15            3.1767    -4.0031    -0.0254 C.2     
  16 S16            3.5884    -2.3478     0.0069 S.3     
  17 C17            1.1743    -5.4911    -0.1293 C.ar    
  18 C18            0.1326    -5.7883     0.7471 C.ar    
  19 C19            1.5955    -6.4463    -1.0521 C.ar    
  20 C20            0.9835    -7.6828    -1.0897 C.ar    
  21 C21           -0.0466    -7.9743    -0.2138 C.ar    
  22 C22           -0.4724    -7.0279     0.7007 C.ar    
  23 C23           -0.8430     3.6074    -0.0904 C.3     
  24 C24           -0.1752     6.4158    -0.0230 C.3     
  25 N25           -0.6733     6.5596    -1.3975 N.3     
  26 C26           -1.9683     7.2643    -1.4192 C.3     
  27 C27           -1.8025     8.4975    -2.3318 C.3     
  28 C28           -0.5947     8.1111    -3.2256 C.3     
  29 C29            0.2864     7.3127    -2.2328 C.3     
  30 C30            4.1713    -5.1350     0.0017 C.3     
  31 F31            4.5345    -5.4681    -1.3076 F       
  32 F32            5.3082    -4.7398     0.7149 F       
  33 F33            3.5945    -6.2478     0.6231 F       
  34 H34            2.4890     6.8286     0.0944 H       
  35 H35            4.2848     5.1474     0.1460 H       
  36 H36            3.7331     2.7505     0.0951 H       
  37 H37            0.0373    -2.9275    -0.1423 H       
  38 H38           -0.2006    -5.0501     1.4615 H       
  39 H39            2.3993    -6.2194    -1.7369 H       
  40 H40            1.3092    -8.4239    -1.8045 H       
  41 H41           -0.5231    -8.9430    -0.2469 H       
  42 H42           -1.2771    -7.2608     1.3823 H       
  43 H43           -1.2019     3.3821     0.9139 H       
  44 H44           -1.4426     4.4106    -0.5187 H       
  45 H45           -0.9280     2.7180    -0.7147 H       
  46 H46           -0.9910     6.1019     0.6281 H       
  47 H47            0.2184     7.3716     0.3227 H       
  48 H48           -2.7409     6.6079    -1.8196 H       
  49 H49           -2.2344     7.5820    -0.4111 H       
  50 H50           -2.6958     8.6521    -2.9369 H       
  51 H51           -1.5768     9.3859    -1.7420 H       
  52 H52           -0.9106     7.4837    -4.0590 H       
  53 H53           -0.0736     8.9992    -3.5831 H       
  54 H54            0.8745     7.9923    -1.6160 H       
  55 H55            0.9398     6.6268    -2.7721 H       
@<TRIPOS>BOND
   1    1    2 1
   2    1    3 2
   3    2    5 1
   4    3    4 1
   5    3    7 1
   6    4    5 2
   7    5    6 1
   8    6   13 2
   9    6   16 1
  10    7    8 ar
  11    7   12 ar
  12    8    9 ar
  13    8   23 1
  14    9   10 ar
  15    9   24 1
  16   10   11 ar
  17   10   34 1
  18   11   12 ar
  19   11   35 1
  20   12   36 1
  21   13   14 1
  22   13   37 1
  23   14   15 2
  24   14   17 1
  25   15   16 1
  26   15   30 1
  27   17   18 ar
  28   17   19 ar
  29   18   22 ar
  30   18   38 1
  31   19   20 ar
  32   19   39 1
  33   20   21 ar
  34   20   40 1
  35   21   22 ar
  36   21   41 1
  37   22   42 1
  38   23   43 1
  39   23   44 1
  40   23   45 1
  41   24   25 1
  42   24   46 1
  43   24   47 1
  44   25   26 1
  45   25   29 1
  46   26   27 1
  47   26   48 1
  48   26   49 1
  49   27   28 1
  50   27   50 1
  51   27   51 1
  52   28   29 1
  53   28   52 1
  54   28   53 1
  55   29   54 1
  56   29   55 1
  57   30   31 1
  58   30   32 1
  59   30   33 1

#	End of record

