#	Name: ASD07931033
#	Creating user name:	WinNT
#	Creation time:	15. 06. 2019 21:13

#	Modifying user name:	WinNT
#	Modification time:	15. 06. 2019 21:13

#	Program:	/corina/corina34_cracker 3.40 0067  02.08.2006

@<TRIPOS>MOLECULE
ASD07931033
  44   48    0    0    0
SMALL
NO_CHARGES


@<TRIPOS>ATOM
   1 N1            -0.0204     1.3305     0.0086 N.pl3   
   2 C2            -0.0107    -0.0121    -0.0132 C.2     
   3 C3             1.1621    -0.7254    -0.0294 C.2     
   4 C4             2.4524     0.0010    -0.0233 C.2     
   5 C5             2.3962     1.4751    -0.0012 C.ar    
   6 C6             3.5544     2.2460     0.0055 C.ar    
   7 C7             3.4594     3.6220     0.0258 C.ar    
   8 C8             2.2163     4.2347     0.0399 C.ar    
   9 C9             1.0610     3.4814     0.0340 C.ar    
  10 C10            1.1349     2.0927     0.0158 C.ar    
  11 N11            2.8717    -2.1847    -0.0586 N.am    
  12 N12            3.4003    -0.8915    -0.0408 N.2     
  13 C13            1.5219    -2.1398    -0.0526 C.2     
  14 O14            0.7570    -3.0905    -0.0643 O.2     
  15 C15            3.6331    -3.3601    -0.0801 C.ar    
  16 C16            4.5879    -3.5544    -1.0731 C.ar    
  17 C17            5.3372    -4.7163    -1.0905 C.ar    
  18 C18            5.1377    -5.6836    -0.1222 C.ar    
  19 C19            4.1891    -5.4927     0.8652 C.ar    
  20 C20            3.4409    -4.3314     0.8926 C.ar    
  21 F21            4.7822    -2.6096    -2.0191 F       
  22 C22           -1.3130     2.0200     0.0191 C.3     
  23 C23           -1.7066     2.3710    -1.3926 C.ar    
  24 C24           -2.1620     1.3838    -2.2504 C.ar    
  25 C25           -2.5238     1.7074    -3.5467 C.ar    
  26 C26           -2.4300     3.0160    -3.9837 C.ar    
  27 C27           -1.9746     4.0006    -3.1262 C.ar    
  28 C28           -1.6186     3.6789    -1.8296 C.ar    
  29 I29           -2.9773     3.5067    -5.9455 I       
  30 F30           -2.2528     0.1056    -1.8224 F       
  31 H31           -0.9502    -0.5448    -0.0177 H       
  32 H32            4.5235     1.7693    -0.0048 H       
  33 H33            4.3562     4.2237     0.0310 H       
  34 H34            2.1516     5.3126     0.0561 H       
  35 H35            0.0981     3.9704     0.0458 H       
  36 H36            6.0785    -4.8688    -1.8610 H       
  37 H37            5.7242    -6.5903    -0.1378 H       
  38 H38            4.0358    -6.2506     1.6192 H       
  39 H39            2.7039    -4.1816     1.6677 H       
  40 H40           -2.0692     1.3677     0.4557 H       
  41 H41           -1.2336     2.9316     0.6115 H       
  42 H42           -2.8787     0.9382    -4.2166 H       
  43 H43           -1.9009     5.0224    -3.4684 H       
  44 H44           -1.2676     4.4496    -1.1593 H       
@<TRIPOS>BOND
   1    1    2 1
   2    1   10 1
   3    1   22 1
   4    2    3 2
   5    2   31 1
   6    3    4 1
   7    3   13 1
   8    4    5 1
   9    4   12 2
  10    5    6 ar
  11    5   10 ar
  12    6    7 ar
  13    6   32 1
  14    7    8 ar
  15    7   33 1
  16    8    9 ar
  17    8   34 1
  18    9   10 ar
  19    9   35 1
  20   11   12 1
  21   11   13 am
  22   11   15 1
  23   13   14 2
  24   15   16 ar
  25   15   20 ar
  26   16   17 ar
  27   16   21 1
  28   17   18 ar
  29   17   36 1
  30   18   19 ar
  31   18   37 1
  32   19   20 ar
  33   19   38 1
  34   20   39 1
  35   22   23 1
  36   22   40 1
  37   22   41 1
  38   23   24 ar
  39   23   28 ar
  40   24   25 ar
  41   24   30 1
  42   25   26 ar
  43   25   42 1
  44   26   27 ar
  45   26   29 1
  46   27   28 ar
  47   27   43 1
  48   28   44 1

#	End of record

