#	Name: ASD02408034
#	Creating user name:	WinNT
#	Creation time:	15. 06. 2019 20:21

#	Modifying user name:	WinNT
#	Modification time:	15. 06. 2019 20:21

#	Program:	/corina/corina34_cracker 3.40 0067  02.08.2006

@<TRIPOS>MOLECULE
ASD02408034
  37   39    0    0    0
SMALL
NO_CHARGES


@<TRIPOS>ATOM
   1 C1             0.2814     0.9370    -0.0207 C.ar    
   2 C2             0.4448    -0.4294    -0.1523 C.ar    
   3 C3             1.4857     1.8429    -0.0201 C.3     
   4 C4             1.7938     2.2698    -1.4322 C.2     
   5 N5             2.8412     3.0881    -1.6512 N.am    
   6 N6             1.0400     1.8301    -2.4030 N.2     
   7 C7             1.2665     2.1757    -3.6768 C.2     
   8 C8             2.3398     3.0310    -3.9762 C.2     
   9 C9             3.1461     3.4899    -2.9030 C.2     
  10 N10            0.4586     1.6986    -4.6796 N.pl3   
  11 O11            4.0901     4.2338    -3.1064 O.2     
  12 C12           -0.9805     1.4218    -4.5618 C.3     
  13 C13           -0.6594    -1.2608    -0.1529 C.ar    
  14 C14           -1.9283    -0.7253    -0.0216 C.ar    
  15 C15           -2.0911     0.6423     0.1101 C.ar    
  16 C16           -0.9866     1.4732     0.1048 C.ar    
  17 C17           -1.4561     0.8800    -5.9263 C.3     
  18 C18           -0.1456     0.3488    -6.5651 C.3     
  19 C19            0.8893     1.3853    -6.0542 C.3     
  20 Cl20          -3.3156    -1.7689    -0.0228 Cl      
  21 C21            2.6151     3.4238    -5.3255 C.1     
  22 N22            2.8335     3.7354    -6.3958 N.1     
  23 H23            1.4353    -0.8473    -0.2551 H       
  24 H24            1.2780     2.7231     0.5884 H       
  25 H25            2.3416     1.3093     0.3930 H       
  26 H26            3.3800     3.3910    -0.9037 H       
  27 H27           -1.1522     0.6753    -3.7863 H       
  28 H28           -1.5161     2.3399    -4.3205 H       
  29 H29           -0.5316    -2.3283    -0.2561 H       
  30 H30           -3.0814     1.0609     0.2126 H       
  31 H31           -1.1136     2.5407     0.2077 H       
  32 H32           -2.1745     0.0714    -5.7911 H       
  33 H33           -1.8833     1.6798    -6.5312 H       
  34 H34            0.0877    -0.6524    -6.2028 H       
  35 H35           -0.2072     0.3644    -7.6532 H       
  36 H36            0.8693     2.2798    -6.6768 H       
  37 H37            1.8888     0.9506    -6.0452 H       
@<TRIPOS>BOND
   1    1    2 ar
   2    1    3 1
   3    1   16 ar
   4    2   13 ar
   5    2   23 1
   6    3    4 1
   7    3   24 1
   8    3   25 1
   9    4    5 1
  10    4    6 2
  11    5    9 am
  12    5   26 1
  13    6    7 1
  14    7    8 2
  15    7   10 1
  16    8    9 1
  17    8   21 1
  18    9   11 2
  19   10   12 1
  20   10   19 1
  21   12   17 1
  22   12   27 1
  23   12   28 1
  24   13   14 ar
  25   13   29 1
  26   14   15 ar
  27   14   20 1
  28   15   16 ar
  29   15   30 1
  30   16   31 1
  31   17   18 1
  32   17   32 1
  33   17   33 1
  34   18   19 1
  35   18   34 1
  36   18   35 1
  37   19   36 1
  38   19   37 1
  39   21   22 3

#	End of record

