#	Name: ASD01880533
#	Creating user name:	WinNT
#	Creation time:	15. 06. 2019 19:40

#	Modifying user name:	WinNT
#	Modification time:	15. 06. 2019 19:40

#	Program:	/corina/corina34_cracker 3.40 0067  02.08.2006

@<TRIPOS>MOLECULE
ASD01880533
  42   44    0    0    0
SMALL
NO_CHARGES


@<TRIPOS>ATOM
   1 N1            -0.0158     1.3134     0.0093 N.ar    
   2 C2             0.0021    -0.0041     0.0020 C.ar    
   3 N3             1.1310    -0.6837    -0.0120 N.ar    
   4 C4             2.3017    -0.0609    -0.0198 C.ar    
   5 C5             2.3291     1.3231    -0.0131 C.ar    
   6 C6             1.1166     2.0083     0.0022 C.ar    
   7 C7             3.6381     2.0697    -0.0211 C.3     
   8 O8             4.0398     2.3125    -1.3708 O.3     
   9 C9             5.2068     2.9799    -1.5557 C.ar    
  10 C10            5.6567     3.2496    -2.8446 C.ar    
  11 C11            6.8371     3.9252    -3.0303 C.ar    
  12 C12            7.5927     4.3455    -1.9306 C.ar    
  13 C13            7.1361     4.0724    -0.6382 C.ar    
  14 C14            5.9487     3.3986    -0.4576 C.ar    
  15 C15            7.5914     4.3680    -4.2593 C.3     
  16 N16            8.7968     5.0512    -3.7762 N.am    
  17 C17            8.7935     5.0359    -2.4322 C.2     
  18 O18            9.6585     5.5230    -1.7302 O.2     
  19 Cl19           3.7808    -0.9695    -0.0377 Cl      
  20 O20            1.0923     3.3633     0.0088 O.3     
  21 C21           -0.1924     3.9890     0.0245 C.3     
  22 C22           10.5622     7.7387    -5.7828 C.3     
  23 C23            9.4795     7.1124    -4.9016 C.3     
  24 C24            9.8335     5.6509    -4.6199 C.3     
  25 H25           -0.9345    -0.5419     0.0081 H       
  26 H26            3.5174     3.0202     0.4987 H       
  27 H27            4.3992     1.4741     0.4830 H       
  28 H28            5.0780     2.9274    -3.6977 H       
  29 H29            7.7121     4.3922     0.2176 H       
  30 H30            5.5963     3.1882     0.5413 H       
  31 H31            7.8672     3.5025    -4.8617 H       
  32 H32            6.9813     5.0546    -4.8462 H       
  33 H33           -0.0690     5.0719     0.0284 H       
  34 H34           -0.7528     3.6903    -0.8614 H       
  35 H35           -0.7352     3.6819     0.9185 H       
  36 H36           11.5221     7.6899    -5.2688 H       
  37 H37           10.6257     7.1924    -6.7239 H       
  38 H38           10.3100     8.7800    -5.9835 H       
  39 H39            9.4159     7.6588    -3.9606 H       
  40 H40            8.5195     7.1612    -5.4156 H       
  41 H41           10.7934     5.6021    -4.1059 H       
  42 H42            9.8970     5.1045    -5.5610 H       
@<TRIPOS>BOND
   1    1    2 ar
   2    1    6 ar
   3    2    3 ar
   4    2   25 1
   5    3    4 ar
   6    4    5 ar
   7    4   19 1
   8    5    6 ar
   9    5    7 1
  10    6   20 1
  11    7    8 1
  12    7   26 1
  13    7   27 1
  14    8    9 1
  15    9   10 ar
  16    9   14 ar
  17   10   11 ar
  18   10   28 1
  19   11   12 ar
  20   11   15 1
  21   12   13 ar
  22   12   17 1
  23   13   14 ar
  24   13   29 1
  25   14   30 1
  26   15   16 1
  27   15   31 1
  28   15   32 1
  29   16   17 am
  30   16   24 1
  31   17   18 2
  32   20   21 1
  33   21   33 1
  34   21   34 1
  35   21   35 1
  36   22   23 1
  37   22   36 1
  38   22   37 1
  39   22   38 1
  40   23   24 1
  41   23   39 1
  42   23   40 1
  43   24   41 1
  44   24   42 1

#	End of record

