#	Name: ASD01140127
#	Creating user name:	WinNT
#	Creation time:	15. 06. 2019 19:00

#	Modifying user name:	WinNT
#	Modification time:	15. 06. 2019 19:00

#	Program:	/corina/corina34_cracker 3.40 0067  02.08.2006

@<TRIPOS>MOLECULE
ASD01140127
  13   12    0    0    0
SMALL
NO_CHARGES


@<TRIPOS>ATOM
   1 N1            -0.0178     1.4608     0.0101 N.pl3   
   2 C2             0.0021    -0.0041     0.0020 C.3     
   3 N3             1.3897    -0.4735    -0.0138 N.pl3   
   4 N4            -0.6704    -0.5082     1.2020 N.pl3   
   5 N5            -0.6932    -0.4953    -1.1902 N.pl3   
   6 O6             1.0286     2.0841     0.0034 O.2     
   7 O7            -1.0808     2.0554     0.0183 O.2     
   8 O8            -1.1744     0.2941    -1.9832 O.2     
   9 O9            -0.7901    -1.6932    -1.3885 O.2     
  10 O10            1.8063    -1.1732     0.8921 O.2     
  11 O11            2.1269    -0.1642    -0.9327 O.2     
  12 O12           -1.2478    -1.5802     1.1716 O.2     
  13 O13           -0.6521     0.1447     2.2300 O.2     
@<TRIPOS>BOND
   1    1    2 1
   2    1    6 2
   3    1    7 2
   4    2    3 1
   5    2    4 1
   6    2    5 1
   7    3   10 2
   8    3   11 2
   9    4   12 2
  10    4   13 2
  11    5    8 2
  12    5    9 2

#	End of record

