#	Name: ASD09116370
#	Creating user name:	WinNT
#	Creation time:	15. 06. 2019 21:21

#	Modifying user name:	WinNT
#	Modification time:	15. 06. 2019 21:21

#	Program:	/corina/corina34_cracker 3.40 0067  02.08.2006

@<TRIPOS>MOLECULE
ASD09116370
  48   52    0    0    0
SMALL
NO_CHARGES


@<TRIPOS>ATOM
   1 N1            -0.0322     1.4228     0.1677 N.2     
   2 N2            -0.0256     0.0261     0.3124 N.pl3   
   3 C3             1.2204     1.8104     0.1364 C.2     
   4 N4             2.0119     0.7376     0.2530 N.2     
   5 C5             1.2748    -0.3472     0.3602 C.2     
   6 N6             1.7451    -1.6394     0.4969 N.pl3   
   7 C7            -1.1395    -0.8117     0.3913 C.ar    
   8 N8             1.6572     3.1282     0.0026 N.pl3   
   9 C9             3.0226     3.4265     0.0970 C.ar    
  10 C10            3.8672     2.6296     0.8681 C.ar    
  11 C11            3.5518     4.5149    -0.5804 C.ar    
  12 N12            4.8370     4.8018    -0.4966 N.ar    
  13 C13            5.6670     4.0703     0.2300 C.ar    
  14 C14            5.2085     2.9611     0.9323 C.ar    
  15 N15           -1.0378    -2.0839     0.0368 N.ar    
  16 N16           -2.0347    -2.8945     0.0810 N.ar    
  17 C17           -3.2315    -2.5008     0.4860 C.ar    
  18 C18           -3.4283    -1.1803     0.9000 C.ar    
  19 C19           -2.3602    -0.3097     0.8496 C.ar    
  20 C20           -4.3944    -3.4183     0.4866 C.ar    
  21 C21           -5.5881    -2.9949    -0.0998 C.ar    
  22 C22           -5.6463    -1.6464    -0.7637 C.3     
  23 C23           -5.7478    -0.5234     0.2649 C.3     
  24 C24           -4.7719    -0.7539     1.4156 C.3     
  25 C25           -4.3118    -4.6812     1.0625 C.ar    
  26 C26           -5.4213    -5.5044     1.0672 C.ar    
  27 C27           -6.6084    -5.0727     0.5039 C.ar    
  28 C28           -6.6921    -3.8198    -0.0784 C.ar    
  29 N29            7.0160     4.4124     0.2878 N.pl3   
  30 H30            2.7001    -1.8080     0.5203 H       
  31 H31            1.1203    -2.3778     0.5693 H       
  32 H32            1.0155     3.8381    -0.1558 H       
  33 H33            3.4832     1.7737     1.4033 H       
  34 H34            2.9047     5.1345    -1.1835 H       
  35 H35            5.8905     2.3681     1.5235 H       
  36 H36           -2.4654     0.7238     1.1452 H       
  37 H37           -4.7451    -1.5034    -1.3600 H       
  38 H38           -6.5161    -1.6091    -1.4195 H       
  39 H39           -5.5164     0.4266    -0.2170 H       
  40 H40           -6.7639    -0.4875     0.6578 H       
  41 H41           -5.1673    -1.5302     2.0707 H       
  42 H42           -4.6615     0.1705     1.9825 H       
  43 H43           -3.3849    -5.0171     1.5036 H       
  44 H44           -5.3614    -6.4870     1.5114 H       
  45 H45           -7.4750    -5.7172     0.5181 H       
  46 H46           -7.6225    -3.4884    -0.5155 H       
  47 H47            7.3424     5.1830    -0.2028 H       
  48 H48            7.6290     3.8802     0.8186 H       
@<TRIPOS>BOND
   1    1    2 1
   2    1    3 2
   3    2    7 1
   4    2    5 1
   5    3    4 1
   6    3    8 1
   7    4    5 2
   8    5    6 1
   9    6   30 1
  10    6   31 1
  11    7   15 ar
  12    7   19 ar
  13    8    9 1
  14    8   32 1
  15    9   10 ar
  16    9   11 ar
  17   10   14 ar
  18   10   33 1
  19   11   12 ar
  20   11   34 1
  21   12   13 ar
  22   13   14 ar
  23   13   29 1
  24   14   35 1
  25   15   16 ar
  26   16   17 ar
  27   17   18 ar
  28   17   20 1
  29   18   19 ar
  30   18   24 1
  31   19   36 1
  32   20   21 ar
  33   20   25 ar
  34   21   22 1
  35   21   28 ar
  36   22   23 1
  37   22   37 1
  38   22   38 1
  39   23   24 1
  40   23   39 1
  41   23   40 1
  42   24   41 1
  43   24   42 1
  44   25   26 ar
  45   25   43 1
  46   26   27 ar
  47   26   44 1
  48   27   28 ar
  49   27   45 1
  50   28   46 1
  51   29   47 1
  52   29   48 1

#	End of record

