#	Name: ASD03540062
#	Creating user name:	WinNT
#	Creation time:	15. 06. 2019 20:42

#	Modifying user name:	WinNT
#	Modification time:	15. 06. 2019 20:42

#	Program:	/corina/corina34_cracker 3.40 0067  02.08.2006

@<TRIPOS>MOLECULE
ASD03540062
  49   52    0    0    0
SMALL
NO_CHARGES


@<TRIPOS>ATOM
   1 C1            -0.0161     1.3365     0.0094 C.2     
   2 N2             0.0021    -0.0041     0.0020 N.am    
   3 C3             1.1931    -0.7075    -0.0132 C.2     
   4 C4             2.3928    -0.0051    -0.0209 C.2     
   5 C5             2.3194     1.4734    -0.0115 C.2     
   6 N6             1.1110     2.0661     0.0025 N.am    
   7 C7             3.5129    -0.8381    -0.0361 C.2     
   8 C8             3.2256    -2.1516    -0.0404 C.2     
   9 S9             1.4874    -2.3902    -0.0250 S.3     
  10 C10            4.2183    -3.2259    -0.0565 C.2     
  11 O11            5.4048    -2.9577    -0.0671 O.2     
  12 O12            3.8179    -4.5143    -0.0595 O.3     
  13 O13            3.3358     2.1426    -0.0175 O.2     
  14 O14           -1.0880     1.9101     0.0175 O.2     
  15 C15            1.0243     3.5285     0.0113 C.3     
  16 C16            1.0082     4.0223     1.4350 C.ar    
  17 C17            2.1988     4.3190     2.0745 C.ar    
  18 C18            2.1913     4.7714     3.3776 C.ar    
  19 C19            0.9785     4.9301     4.0512 C.ar    
  20 C20           -0.2193     4.6292     3.3996 C.ar    
  21 C21           -0.1974     4.1822     2.0947 C.ar    
  22 C22            0.9632     5.3988     5.4042 C.1     
  23 N23            0.9511     5.7707     6.4776 N.1     
  24 C24            4.8413    -5.5116    -0.0754 C.3     
  25 C25            4.2094    -6.8798    -0.0765 C.ar    
  26 C26            3.9078    -7.4998    -1.2738 C.ar    
  27 C27            3.3262    -8.7591    -1.2741 C.ar    
  28 C28            3.0488    -9.3929    -0.0713 C.ar    
  29 C29            3.3522    -8.7688     1.1229 C.ar    
  30 C30            3.9372    -7.5157     1.1204 C.ar    
  31 O31            3.0281    -9.3709    -2.4504 O.3     
  32 C32            2.4306   -10.6668    -2.3746 C.3     
  33 H33           -0.8370    -0.4906     0.0078 H       
  34 H34            4.5244    -0.4597    -0.0438 H       
  35 H35            1.8863     3.9467    -0.5086 H       
  36 H36            0.1095     3.8412    -0.4921 H       
  37 H37            3.1361     4.1958     1.5523 H       
  38 H38            3.1213     5.0019     3.8759 H       
  39 H39           -1.1608     4.7497     3.9148 H       
  40 H40           -1.1233     3.9530     1.5882 H       
  41 H41            5.4510    -5.3923    -0.9710 H       
  42 H42            5.4691    -5.4021     0.8089 H       
  43 H43            4.1243    -7.0043    -2.2086 H       
  44 H44            2.5956   -10.3732    -0.0690 H       
  45 H45            3.1362    -9.2616     2.0593 H       
  46 H46            4.1781    -7.0314     2.0552 H       
  47 H47            3.1036   -11.3472    -1.8529 H       
  48 H48            1.4878   -10.6009    -1.8316 H       
  49 H49            2.2447   -11.0406    -3.3814 H       
@<TRIPOS>BOND
   1    1    2 am
   2    1    6 am
   3    1   14 2
   4    2    3 1
   5    2   33 1
   6    3    4 2
   7    3    9 1
   8    4    5 1
   9    4    7 1
  10    5    6 am
  11    5   13 2
  12    6   15 1
  13    7    8 2
  14    7   34 1
  15    8    9 1
  16    8   10 1
  17   10   11 2
  18   10   12 1
  19   12   24 1
  20   15   16 1
  21   15   35 1
  22   15   36 1
  23   16   17 ar
  24   16   21 ar
  25   17   18 ar
  26   17   37 1
  27   18   19 ar
  28   18   38 1
  29   19   20 ar
  30   19   22 1
  31   20   21 ar
  32   20   39 1
  33   21   40 1
  34   22   23 3
  35   24   25 1
  36   24   41 1
  37   24   42 1
  38   25   26 ar
  39   25   30 ar
  40   26   27 ar
  41   26   43 1
  42   27   28 ar
  43   27   31 1
  44   28   29 ar
  45   28   44 1
  46   29   30 ar
  47   29   45 1
  48   30   46 1
  49   31   32 1
  50   32   47 1
  51   32   48 1
  52   32   49 1

#	End of record

