#	Name: ASD00170565
#	Creating user name:	WinNT
#	Creation time:	15. 06. 2019 18:32

#	Modifying user name:	WinNT
#	Modification time:	15. 06. 2019 18:32

#	Program:	/corina/corina34_cracker 3.40 0067  02.08.2006

@<TRIPOS>MOLECULE
ASD00170565
  54   58    0    0    0
SMALL
NO_CHARGES


@<TRIPOS>ATOM
   1 N1            -0.1510     1.8479    -0.0415 N.3     
   2 C2             0.1079     0.4018    -0.0407 C.3     
   3 C3            -1.1852    -0.3398     0.1801 C.2     
   4 C4            -1.5505    -0.8347     1.3525 C.2     
   5 S5            -3.1098    -1.6305     1.2383 S.3     
   6 C6            -3.2536    -1.2791    -0.4233 C.2     
   7 C7            -2.1564    -0.5778    -0.8669 C.2     
   8 C8            -1.9849    -0.1299    -2.2488 C.2     
   9 O9            -2.3585     0.9810    -2.5796 O.2     
  10 C10           -1.3579    -1.0260    -3.2441 C.ar    
  11 C11           -1.2910    -0.6455    -4.5857 C.ar    
  12 C12           -0.7047    -1.4851    -5.5092 C.ar    
  13 C13           -0.1832    -2.7040    -5.1082 C.ar    
  14 C14           -0.2472    -3.0872    -3.7786 C.ar    
  15 C15           -0.8255    -2.2532    -2.8450 C.ar    
  16 N16           -4.3252    -1.6430    -1.2133 N.pl3   
  17 Cl17           0.5528    -3.7560    -6.2766 Cl      
  18 C18            1.1198     2.6161    -0.0160 C.3     
  19 C19            0.7235     4.0118     0.5086 C.3     
  20 C20           -0.5833     3.7783     1.3137 C.3     
  21 C21           -0.8532     2.2636     1.1994 C.3     
  22 C22            1.7603     4.4616     1.5590 C.3     
  23 N23            0.9517     5.0250     2.6700 N.3     
  24 C24           -0.2127     4.1090     2.7744 C.3     
  25 C25            1.6820     5.0444     3.8612 C.ar    
  26 C26            3.0580     5.2314     3.8308 C.ar    
  27 C27            3.7773     5.2500     5.0096 C.ar    
  28 C28            3.1285     5.0825     6.2203 C.ar    
  29 C29            1.7578     4.8955     6.2536 C.ar    
  30 C30            1.0326     4.8822     5.0783 C.ar    
  31 Cl31           4.0358     5.1064     7.7001 Cl      
  32 H32            0.5357     0.1088    -0.9995 H       
  33 H33            0.8075     0.1584     0.7589 H       
  34 H34           -0.9665    -0.7590     2.2578 H       
  35 H35           -1.6978     0.3044    -4.8996 H       
  36 H36           -0.6523    -1.1918    -6.5473 H       
  37 H37            0.1608    -4.0389    -3.4718 H       
  38 H38           -0.8745    -2.5529    -1.8085 H       
  39 H39           -5.0296    -2.2009    -0.8480 H       
  40 H40           -4.3739    -1.3408    -2.1337 H       
  41 H41            1.8345     2.1455     0.6592 H       
  42 H42            1.5378     2.6923    -1.0198 H       
  43 H43            0.5944     4.7362    -0.2956 H       
  44 H44           -1.4149     4.3772     0.9422 H       
  45 H45           -1.9230     2.0739     1.1120 H       
  46 H46           -0.4428     1.7386     2.0620 H       
  47 H47            2.3423     3.6084     1.9076 H       
  48 H48            2.4168     5.2252     1.1419 H       
  49 H49           -1.0439     4.6068     3.2737 H       
  50 H50            0.0650     3.2015     3.3105 H       
  51 H51            3.5650     5.3619     2.8861 H       
  52 H52            4.8473     5.3951     4.9865 H       
  53 H53            1.2540     4.7643     7.1998 H       
  54 H54           -0.0372     4.7366     5.1048 H       
@<TRIPOS>BOND
   1    1    2 1
   2    1   18 1
   3    1   21 1
   4    2    3 1
   5    2   32 1
   6    2   33 1
   7    3    4 2
   8    3    7 1
   9    4    5 1
  10    4   34 1
  11    5    6 1
  12    6    7 2
  13    6   16 1
  14    7    8 1
  15    8    9 2
  16    8   10 1
  17   10   11 ar
  18   10   15 ar
  19   11   12 ar
  20   11   35 1
  21   12   13 ar
  22   12   36 1
  23   13   14 ar
  24   13   17 1
  25   14   15 ar
  26   14   37 1
  27   15   38 1
  28   16   39 1
  29   16   40 1
  30   18   19 1
  31   18   41 1
  32   18   42 1
  33   19   20 1
  34   19   22 1
  35   19   43 1
  36   20   21 1
  37   20   24 1
  38   20   44 1
  39   21   45 1
  40   21   46 1
  41   22   23 1
  42   22   47 1
  43   22   48 1
  44   23   24 1
  45   23   25 1
  46   24   49 1
  47   24   50 1
  48   25   26 ar
  49   25   30 ar
  50   26   27 ar
  51   26   51 1
  52   27   28 ar
  53   27   52 1
  54   28   29 ar
  55   28   31 1
  56   29   30 ar
  57   29   53 1
  58   30   54 1

#	End of record

