#	Name: ASD03240151
#	Creating user name:	WinNT
#	Creation time:	15. 06. 2019 20:34

#	Modifying user name:	WinNT
#	Modification time:	15. 06. 2019 20:34

#	Program:	/corina/corina34_cracker 3.40 0067  02.08.2006

@<TRIPOS>MOLECULE
ASD03240151
  68   74    0    0    0
SMALL
NO_CHARGES


@<TRIPOS>ATOM
   1 C1            -0.0168     1.3905     0.0097 C.ar    
   2 C2             0.0021    -0.0041     0.0020 C.ar    
   3 C3             1.1921     2.0894     0.0019 C.ar    
   4 C4             2.3779     1.3577    -0.0134 C.ar    
   5 C5             2.3110    -0.0456    -0.0203 C.ar    
   6 N6             1.1389    -0.6663    -0.0124 N.ar    
   7 C7             3.5613    -0.8395    -0.0369 C.ar    
   8 C8             3.6894     2.0491    -0.0227 C.ar    
   9 C9             3.9379     3.0656    -0.9436 C.ar    
  10 C10            5.1604     3.7060    -0.9473 C.ar    
  11 C11            6.1382     3.3409    -0.0394 C.ar    
  12 C12            5.8972     2.3329     0.8768 C.ar    
  13 C13            4.6766     1.6891     0.8933 C.ar    
  14 C14            3.6296    -2.0527     0.6477 C.ar    
  15 C15            4.7971    -2.7879     0.6281 C.ar    
  16 C16            5.8985    -2.3238    -0.0686 C.ar    
  17 C17            5.8369    -1.1212    -0.7497 C.ar    
  18 C18            4.6733    -0.3797    -0.7422 C.ar    
  19 C19            7.1708    -3.1314    -0.0852 C.3     
  20 C20           -1.3069     2.1232     0.0198 C.2     
  21 N21            7.1474    -4.0587    -1.2242 N.3     
  22 C22            8.4587    -4.6915    -1.4147 C.3     
  23 C23            8.4387    -5.5357    -2.6910 C.3     
  24 C24            7.3479    -6.6038    -2.5737 C.3     
  25 C25            5.9999    -5.9205    -2.3275 C.3     
  26 C26            6.0906    -5.0653    -1.0617 C.3     
  27 N27            7.2849    -7.3777    -3.8160 N.pl3   
  28 C28            7.4848    -8.7218    -3.9189 C.ar    
  29 C29            7.3319    -9.0504    -5.2842 C.ar    
  30 C30            7.0281    -7.8036    -5.9748 C.2     
  31 N31            7.0041    -6.8545    -5.0827 N.2     
  32 N32            7.7699    -9.6944    -3.0579 N.ar    
  33 C33            7.9057   -10.9343    -3.4732 C.ar    
  34 N34            7.7700   -11.2802    -4.7423 N.ar    
  35 C35            7.4869   -10.3839    -5.6710 C.ar    
  36 C36            7.3345   -10.7907    -7.1140 C.3     
  37 N37           -1.4622     3.4218     0.0272 N.2     
  38 O38           -2.6427     3.7002     0.0344 O.3     
  39 C39           -3.3766     2.5831     0.0325 C.2     
  40 N40           -2.5424     1.5735     0.0173 N.2     
  41 H41           -0.9306    -0.5486     0.0084 H       
  42 H42            1.2077     3.1693     0.0072 H       
  43 H43            3.1754     3.3512    -1.6531 H       
  44 H44            5.3542     4.4934    -1.6606 H       
  45 H45            7.0935     3.8446    -0.0461 H       
  46 H46            6.6644     2.0518     1.5831 H       
  47 H47            4.4896     0.9023     1.6091 H       
  48 H48            2.7706    -2.4156     1.1925 H       
  49 H49            4.8512    -3.7275     1.1579 H       
  50 H50            6.7001    -0.7641    -1.2917 H       
  51 H51            4.6264     0.5590    -1.2742 H       
  52 H52            8.0253    -2.4612    -0.1797 H       
  53 H53            7.2540    -3.6975     0.8426 H       
  54 H54            9.2248    -3.9210    -1.5008 H       
  55 H55            8.6811    -5.3306    -0.5601 H       
  56 H56            8.2300    -4.8950    -3.5478 H       
  57 H57            9.4073    -6.0177    -2.8237 H       
  58 H58            7.5769    -7.2683    -1.7406 H       
  59 H59            5.7528    -5.2859    -3.1786 H       
  60 H60            5.2260    -6.6775    -2.2006 H       
  61 H61            6.3241    -5.7025    -0.2088 H       
  62 H62            5.1367    -4.5661    -0.8915 H       
  63 H63            6.8504    -7.6881    -7.0338 H       
  64 H64            8.1377   -11.7011    -2.7489 H       
  65 H65            6.2939   -11.0491    -7.3106 H       
  66 H66            7.6313    -9.9630    -7.7581 H       
  67 H67            7.9679   -11.6543    -7.3169 H       
  68 H68           -4.4550     2.5240     0.0375 H       
@<TRIPOS>BOND
   1    1    2 ar
   2    1    3 ar
   3    1   20 1
   4    2    6 ar
   5    2   41 1
   6    3    4 ar
   7    3   42 1
   8    4    5 ar
   9    4    8 1
  10    5    6 ar
  11    5    7 1
  12    7   14 ar
  13    7   18 ar
  14    8    9 ar
  15    8   13 ar
  16    9   10 ar
  17    9   43 1
  18   10   11 ar
  19   10   44 1
  20   11   12 ar
  21   11   45 1
  22   12   13 ar
  23   12   46 1
  24   13   47 1
  25   14   15 ar
  26   14   48 1
  27   15   16 ar
  28   15   49 1
  29   16   17 ar
  30   16   19 1
  31   17   18 ar
  32   17   50 1
  33   18   51 1
  34   19   21 1
  35   19   52 1
  36   19   53 1
  37   20   37 2
  38   20   40 1
  39   21   22 1
  40   21   26 1
  41   22   23 1
  42   22   54 1
  43   22   55 1
  44   23   24 1
  45   23   56 1
  46   23   57 1
  47   24   25 1
  48   24   27 1
  49   24   58 1
  50   25   26 1
  51   25   59 1
  52   25   60 1
  53   26   61 1
  54   26   62 1
  55   27   28 1
  56   27   31 1
  57   28   29 ar
  58   28   32 ar
  59   29   30 1
  60   29   35 ar
  61   30   31 2
  62   30   63 1
  63   32   33 ar
  64   33   34 ar
  65   33   64 1
  66   34   35 ar
  67   35   36 1
  68   36   65 1
  69   36   66 1
  70   36   67 1
  71   37   38 1
  72   38   39 1
  73   39   40 2
  74   39   68 1

#	End of record

