#	Name: ASD01811245
#	Creating user name:	WinNT
#	Creation time:	15. 06. 2019 19:26

#	Modifying user name:	WinNT
#	Modification time:	15. 06. 2019 19:26

#	Program:	/corina/corina34_cracker 3.40 0067  02.08.2006

@<TRIPOS>MOLECULE
ASD01811245
  67   71    0    0    0
SMALL
NO_CHARGES


@<TRIPOS>ATOM
   1 C1            -7.9656     2.0861     2.4119 C.1     
   2 C2            -6.8023     2.8919     2.1928 C.ar    
   3 C3            -5.5534     2.4571     2.6411 C.ar    
   4 C4            -4.4369     3.2384     2.4268 C.ar    
   5 C5            -4.5526     4.4505     1.7697 C.ar    
   6 C6            -5.7871     4.8877     1.3232 C.ar    
   7 C7            -6.9108     4.1133     1.5249 C.ar    
   8 N8            -8.8885     1.4469     2.5856 N.1     
   9 N9            -1.8994     7.7396     1.5192 N.am    
  10 C10           -2.3845     7.2101     0.2374 C.3     
  11 C11           -3.6408     6.3718     0.4940 C.3     
  12 C12           -3.3284     5.2988     1.5396 C.3     
  13 C13           -2.9178     5.9683     2.8532 C.3     
  14 C14           -1.6534     6.8020     2.6233 C.3     
  15 F15           -2.2817     4.4918     1.0810 F       
  16 C16           -1.6789     9.0598     1.6774 C.2     
  17 C17           -1.2743     9.5888     2.9976 C.ar    
  18 C18           -2.0198    10.6025     3.6040 C.ar    
  19 C19           -1.6432    11.0974     4.8364 C.ar    
  20 C20           -0.5280    10.5948     5.4778 C.ar    
  21 C21            0.2259     9.5815     4.8829 C.ar    
  22 C22           -0.1519     9.0732     3.6422 C.ar    
  23 O23           -1.8127     9.8156     0.7349 O.2     
  24 C24           -3.2375    11.1576     2.9110 C.3     
  25 C25            1.4203     9.0449     5.5713 C.2     
  26 N26            1.8183     9.3634     6.7827 N.2     
  27 C27            2.9337     8.6841     7.0737 C.2     
  28 C28            3.2503     7.9126     6.0138 C.2     
  29 N29            2.2935     8.1304     5.0594 N.pl3   
  30 C30            4.4307     6.9823     5.9034 C.3     
  31 O31            5.1906     7.0314     7.1127 O.3     
  32 C32            6.3388     6.1807     7.1125 C.3     
  33 C33           -0.1239    11.1418     6.8226 C.3     
  34 C34            0.0824    12.6657     6.8311 C.3     
  35 C35           -0.6038    12.6720     8.2073 C.3     
  36 C36           -1.3093    11.3761     7.7739 C.3     
  37 H37           -5.4618     1.5115     3.1548 H       
  38 H38           -3.4703     2.9033     2.7730 H       
  39 H39           -5.8704     5.8350     0.8113 H       
  40 H40           -7.8731     4.4534     1.1716 H       
  41 H41           -2.6267     8.0362    -0.4311 H       
  42 H42           -1.6143     6.5852    -0.2147 H       
  43 H43           -4.4394     7.0163     0.8615 H       
  44 H44           -3.9556     5.8947    -0.4340 H       
  45 H45           -3.7233     6.6166     3.1984 H       
  46 H46           -2.7181     5.2040     3.6042 H       
  47 H47           -0.8236     6.1438     2.3657 H       
  48 H48           -1.4132     7.3589     3.5290 H       
  49 H49           -2.2230    11.8812     5.3010 H       
  50 H50            0.4252     8.2861     3.1799 H       
  51 H51           -4.1000    10.5293     3.1333 H       
  52 H52           -3.4259    12.1715     3.2640 H       
  53 H53           -3.0673    11.1734     1.8345 H       
  54 H54            3.4866     8.7438     7.9994 H       
  55 H55            2.2465     7.7147     4.1843 H       
  56 H56            4.0771     5.9647     5.7376 H       
  57 H57            5.0586     7.2896     5.0671 H       
  58 H58            6.0248     5.1465     6.9718 H       
  59 H59            7.0063     6.4714     6.3013 H       
  60 H60            6.8613     6.2754     8.0645 H       
  61 H61            0.6981    10.5874     7.2754 H       
  62 H62            1.1302    12.9643     6.8643 H       
  63 H63           -0.4831    13.1872     6.0588 H       
  64 H64            0.0863    12.5359     9.0399 H       
  65 H65           -1.2836    13.5116     8.3524 H       
  66 H66           -2.2552    11.5449     7.2594 H       
  67 H67           -1.3850    10.6335     8.5682 H       
@<TRIPOS>BOND
   1    1    2 1
   2    1    8 3
   3    2    3 ar
   4    2    7 ar
   5    3    4 ar
   6    3   37 1
   7    4    5 ar
   8    4   38 1
   9    5    6 ar
  10    5   12 1
  11    6    7 ar
  12    6   39 1
  13    7   40 1
  14    9   10 1
  15    9   14 1
  16    9   16 am
  17   10   11 1
  18   10   41 1
  19   10   42 1
  20   11   12 1
  21   11   43 1
  22   11   44 1
  23   12   13 1
  24   12   15 1
  25   13   14 1
  26   13   45 1
  27   13   46 1
  28   14   47 1
  29   14   48 1
  30   16   17 1
  31   16   23 2
  32   17   18 ar
  33   17   22 ar
  34   18   19 ar
  35   18   24 1
  36   19   20 ar
  37   19   49 1
  38   20   21 ar
  39   20   33 1
  40   21   22 ar
  41   21   25 1
  42   22   50 1
  43   24   51 1
  44   24   52 1
  45   24   53 1
  46   25   26 2
  47   25   29 1
  48   26   27 1
  49   27   28 2
  50   27   54 1
  51   28   29 1
  52   28   30 1
  53   29   55 1
  54   30   31 1
  55   30   56 1
  56   30   57 1
  57   31   32 1
  58   32   58 1
  59   32   59 1
  60   32   60 1
  61   33   34 1
  62   33   36 1
  63   33   61 1
  64   34   35 1
  65   34   62 1
  66   34   63 1
  67   35   36 1
  68   35   64 1
  69   35   65 1
  70   36   66 1
  71   36   67 1

#	End of record

