#	Name: ASD01948350
#	Creating user name:	WinNT
#	Creation time:	15. 06. 2019 20:14

#	Modifying user name:	WinNT
#	Modification time:	15. 06. 2019 20:14

#	Program:	/corina/corina34_cracker 3.40 0067  02.08.2006

@<TRIPOS>MOLECULE
ASD01948350
  53   55    0    0    0
SMALL
NO_CHARGES


@<TRIPOS>ATOM
   1 C1             0.5500     1.1113     0.9365 C.2     
   2 N2             0.4011    -0.2415     1.0278 N.am    
   3 C3             1.4700    -1.0587     1.0511 C.2     
   4 C4             2.9286     0.8406     0.8875 C.2     
   5 C5             1.7812     1.6694     0.8662 C.2     
   6 C6             3.7216     2.2298    -1.3984 C.ar    
   7 C7             4.5709     2.1429    -0.3040 C.ar    
   8 N8             4.1965     1.3926     0.8161 N.pl3   
   9 C9             4.0938     2.9710    -2.5036 C.ar    
  10 C10            5.3118     3.6262    -2.5213 C.ar    
  11 C11            6.1618     3.5428    -1.4323 C.ar    
  12 C12            5.7954     2.8030    -0.3235 C.ar    
  13 N13            1.9196     3.0640     0.7730 N.am    
  14 S14            0.5746     4.0298     0.7484 S.o2    
  15 C15           -0.1680     3.8136     2.3893 C.3     
  16 O16            1.3100    -2.2671     1.1338 O.2     
  17 C17           -0.9451    -0.8144     1.1024 C.3     
  18 F18            6.6250     2.7214     0.7397 F       
  19 Br19           5.8167     4.6382    -4.0369 Br      
  20 O20            1.0907     5.3458     0.6041 O.2     
  21 O21           -0.2525     3.4533    -0.2531 O.2     
  22 C22            2.7627    -0.5310     0.9805 C.2     
  23 C23            3.9614    -1.4440     1.0063 C.3     
  24 C24           -1.4478     4.5947     2.6940 C.3     
  25 C25           -1.5100     3.0829     2.4667 C.3     
  26 C26            0.8201     3.6008     3.5379 C.3     
  27 C27            1.6529     4.8690     3.7359 C.3     
  28 O28            2.4909     4.7143     4.8829 O.3     
  29 O29           -1.5469    -0.7870    -0.1935 O.3     
  30 C30           -1.0873    -1.8180    -1.0697 C.3     
  31 H31           -0.3249     1.7442     0.9156 H       
  32 H32            2.7723     1.7148    -1.3879 H       
  33 H33            4.8252     1.2591     1.5427 H       
  34 H34            3.4328     3.0385    -3.3550 H       
  35 H35            7.1122     4.0555    -1.4490 H       
  36 H36            2.8030     3.4615     0.7231 H       
  37 H37           -0.8826    -1.8449     1.4522 H       
  38 H38           -1.5503    -0.2312     1.7964 H       
  39 H39            3.6281    -2.4817     0.9925 H       
  40 H40            4.5842    -1.2508     0.1328 H       
  41 H41            4.5390    -1.2598     1.9122 H       
  42 H42           -1.5861     4.9565     3.7128 H       
  43 H43           -1.8436     5.2384     1.9085 H       
  44 H44           -1.9467     2.7321     1.5317 H       
  45 H45           -1.6891     2.4502     3.3360 H       
  46 H46            0.2711     3.3800     4.4533 H       
  47 H47            1.4799     2.7664     3.2997 H       
  48 H48            2.2711     5.0390     2.8544 H       
  49 H49            0.9886     5.7205     3.8834 H       
  50 H50            3.0484     5.4821     5.0692 H       
  51 H51           -1.5278    -1.6789    -2.0570 H       
  52 H52           -0.0010    -1.7719    -1.1467 H       
  53 H53           -1.3826    -2.7897    -0.6737 H       
@<TRIPOS>BOND
   1    1    2 1
   2    1    5 2
   3    1   31 1
   4    2    3 am
   5    2   17 1
   6    3   22 1
   7    3   16 2
   8    4    5 1
   9    4    8 1
  10    4   22 2
  11    5   13 1
  12    6    7 ar
  13    6    9 ar
  14    6   32 1
  15    7    8 1
  16    7   12 ar
  17    8   33 1
  18    9   10 ar
  19    9   34 1
  20   10   11 ar
  21   10   19 1
  22   11   12 ar
  23   11   35 1
  24   12   18 1
  25   13   14 am
  26   13   36 1
  27   14   15 1
  28   14   20 2
  29   14   21 2
  30   15   24 1
  31   15   26 1
  32   15   25 1
  33   17   29 1
  34   17   37 1
  35   17   38 1
  36   22   23 1
  37   23   39 1
  38   23   40 1
  39   23   41 1
  40   24   25 1
  41   24   42 1
  42   24   43 1
  43   25   44 1
  44   25   45 1
  45   26   27 1
  46   26   46 1
  47   26   47 1
  48   27   28 1
  49   27   48 1
  50   27   49 1
  51   28   50 1
  52   29   30 1
  53   30   51 1
  54   30   52 1
  55   30   53 1

#	End of record

