#	Name: ASD02039078
#	Creating user name:	WinNT
#	Creation time:	15. 06. 2019 20:17

#	Modifying user name:	WinNT
#	Modification time:	15. 06. 2019 20:17

#	Program:	/corina/corina34_cracker 3.40 0067  02.08.2006

@<TRIPOS>MOLECULE
ASD02039078
  42   45    0    0    0
SMALL
NO_CHARGES


@<TRIPOS>ATOM
   1 N1             0.0026     1.2784    -0.2071 N.2     
   2 N2             0.0319    -0.0042    -0.3032 N.2     
   3 C3             1.2281     1.7343    -0.1151 C.2     
   4 O4             2.0536     0.6719    -0.1573 O.3     
   5 C5             1.2660    -0.4147    -0.2767 C.2     
   6 N6             1.6034     3.0606     0.0025 N.pl3   
   7 C7             0.6399     4.0709    -0.0888 C.ar    
   8 C8             1.7304    -1.8457    -0.3632 C.3     
   9 O9             1.9404    -2.1964    -1.7325 O.3     
  10 C10            2.3641    -3.4629    -1.9874 C.ar    
  11 C11            2.5854    -3.8641    -3.2897 C.ar    
  12 C12            2.5782    -4.3472    -0.9331 C.ar    
  13 C13            3.0083    -5.6339    -1.1724 C.ar    
  14 C14            3.2322    -6.0602    -2.4770 C.ar    
  15 C15            3.0217    -5.1680    -3.5454 C.ar    
  16 C16            0.8202     5.2673     0.5927 C.ar    
  17 C17           -0.4958     3.8808    -0.8657 C.ar    
  18 C18           -1.4452     4.8795    -0.9547 C.ar    
  19 C19           -1.2658     6.0700    -0.2701 C.ar    
  20 C20           -0.1321     6.2636     0.5007 C.ar    
  21 N21            3.6628    -7.3454    -2.7376 N.am    
  22 C22            3.8796    -7.7600    -3.9980 C.2     
  23 C23            3.6787    -6.9062    -5.1035 C.2     
  24 C24            3.2609    -5.6302    -4.9140 C.2     
  25 O25            4.2596    -8.9021    -4.1906 O.2     
  26 F26           -2.1960     7.0458    -0.3586 F       
  27 C27            0.0603     7.5600     1.2446 C.3     
  28 F28           -1.1879     8.0900     1.5886 F       
  29 F29            0.8034     7.3252     2.4064 F       
  30 H30            2.5345     3.2901     0.1482 H       
  31 H31            2.6639    -1.9588     0.1880 H       
  32 H32            0.9727    -2.5003     0.0674 H       
  33 H33            2.4225    -3.1757    -4.1057 H       
  34 H34            2.4057    -4.0211     0.0819 H       
  35 H35            3.1718    -6.3111    -0.3472 H       
  36 H36            1.7043     5.4186     1.1943 H       
  37 H37           -0.6359     2.9528    -1.4000 H       
  38 H38           -2.3282     4.7324    -1.5589 H       
  39 H39            3.8114    -7.9583    -2.0006 H       
  40 H40            3.8621    -7.2692    -6.1040 H       
  41 H41            3.1045    -4.9703    -5.7545 H       
  42 H42            0.5929     8.2678     0.6094 H       
@<TRIPOS>BOND
   1    1    2 1
   2    1    3 2
   3    2    5 2
   4    3    4 1
   5    3    6 1
   6    4    5 1
   7    5    8 1
   8    6    7 1
   9    6   30 1
  10    7   16 ar
  11    7   17 ar
  12    8    9 1
  13    8   31 1
  14    8   32 1
  15    9   10 1
  16   10   11 ar
  17   10   12 ar
  18   11   15 ar
  19   11   33 1
  20   12   13 ar
  21   12   34 1
  22   13   14 ar
  23   13   35 1
  24   14   15 ar
  25   14   21 1
  26   15   24 1
  27   16   20 ar
  28   16   36 1
  29   17   18 ar
  30   17   37 1
  31   18   19 ar
  32   18   38 1
  33   19   20 ar
  34   19   26 1
  35   20   27 1
  36   21   22 am
  37   21   39 1
  38   22   23 1
  39   22   25 2
  40   23   24 2
  41   23   40 1
  42   24   41 1
  43   27   28 1
  44   27   29 1
  45   27   42 1

#	End of record

