#	Name: ASD09740362
#	Creating user name:	WinNT
#	Creation time:	15. 06. 2019 21:23

#	Modifying user name:	WinNT
#	Modification time:	15. 06. 2019 21:23

#	Program:	/corina/corina34_cracker 3.40 0067  02.08.2006

@<TRIPOS>MOLECULE
ASD09740362
  57   60    0    0    0
SMALL
NO_CHARGES


@<TRIPOS>ATOM
   1 O1            -0.0173     1.4248     0.0099 O.3     
   2 O2             0.0898     4.1745     0.0227 O.3     
   3 N3             6.1177    -0.4650    -0.0599 N.2     
   4 O4             4.9483    -0.1442    -0.0466 O.3     
   5 C5             6.8811     0.5976    -0.0617 C.2     
   6 N6             6.0705     1.6762    -0.0478 N.2     
   7 C7             4.8414     1.1938    -0.0383 C.2     
   8 C8             3.5890     1.9764    -0.0220 C.ar    
   9 C9             8.3654     0.6136    -0.0758 C.ar    
  10 C10            9.0762    -0.5868    -0.0895 C.ar    
  11 C11           10.4565    -0.5661    -0.1029 C.ar    
  12 C12           11.1296     0.6451    -0.1033 C.ar    
  13 C13           10.4287     1.8364    -0.0901 C.ar    
  14 C14            9.0488     1.8267    -0.0814 C.ar    
  15 C15            2.3547     1.3221    -0.0133 C.ar    
  16 C16            1.1859     2.0586     0.0018 C.ar    
  17 C17            1.2400     3.4515     0.0083 C.ar    
  18 C18            2.4659     4.1011    -0.0004 C.ar    
  19 C19            3.6361     3.3717    -0.0097 C.ar    
  20 C20            0.2182     5.5977     0.0287 C.3     
  21 C21           -1.1726     6.2352     0.0449 C.3     
  22 C22            0.0021    -0.0041     0.0020 C.3     
  23 C23           -1.4333    -0.5336     0.0129 C.3     
  24 C24           10.9894    -1.9831    -0.1155 C.3     
  25 C25            9.7954    -2.8599    -0.5488 C.3     
  26 C26            8.5846    -2.0183    -0.0925 C.3     
  27 N27           12.0889    -2.1055    -1.0820 N.3     
  28 C28           13.3723    -1.7384    -0.4686 C.3     
  29 C29           14.4906    -1.8782    -1.5034 C.3     
  30 O30           14.2888    -0.9305    -2.5538 O.3     
  31 H31           12.2094     0.6584    -0.1137 H       
  32 H32           10.9616     2.7758    -0.0904 H       
  33 H33            8.5007     2.7572    -0.0713 H       
  34 H34            2.3142     0.2428    -0.0187 H       
  35 H35            2.5038     5.1804     0.0047 H       
  36 H36            4.5891     3.8799    -0.0160 H       
  37 H37            0.7709     5.9090     0.9151 H       
  38 H38            0.7542     5.9179    -0.8648 H       
  39 H39           -1.7253     5.9239    -0.8415 H       
  40 H40           -1.7086     5.9150     0.9383 H       
  41 H41           -1.0747     7.3208     0.0494 H       
  42 H42            0.5123    -0.3556    -0.8948 H       
  43 H43            0.5293    -0.3651     0.8851 H       
  44 H44           -1.9435    -0.1821     0.9097 H       
  45 H45           -1.9605    -0.1726    -0.8702 H       
  46 H46           -1.4185    -1.6235     0.0069 H       
  47 H47           11.3269    -2.2691     0.8807 H       
  48 H48            9.7870    -2.9964    -1.6302 H       
  49 H49            9.8144    -3.8214    -0.0358 H       
  50 H50            8.2746    -2.3139     0.9098 H       
  51 H51            7.7583    -2.1330    -0.7941 H       
  52 H52           12.1269    -3.0360    -1.4705 H       
  53 H53           13.3265    -0.7066    -0.1202 H       
  54 H54           13.5736    -2.3983     0.3753 H       
  55 H55           15.4527    -1.6920    -1.0261 H       
  56 H56           14.4792    -2.8867    -1.9168 H       
  57 H57           14.9622    -0.9624    -3.2470 H       
@<TRIPOS>BOND
   1    1   22 1
   2    1   16 1
   3    2   20 1
   4    2   17 1
   5    3    4 1
   6    3    5 2
   7    4    7 1
   8    5    6 1
   9    5    9 1
  10    6    7 2
  11    7    8 1
  12    8   15 ar
  13    8   19 ar
  14    9   10 ar
  15    9   14 ar
  16   10   11 ar
  17   10   26 1
  18   11   12 ar
  19   11   24 1
  20   12   13 ar
  21   12   31 1
  22   13   14 ar
  23   13   32 1
  24   14   33 1
  25   15   16 ar
  26   15   34 1
  27   16   17 ar
  28   17   18 ar
  29   18   19 ar
  30   18   35 1
  31   19   36 1
  32   20   21 1
  33   20   37 1
  34   20   38 1
  35   21   39 1
  36   21   40 1
  37   21   41 1
  38   22   23 1
  39   22   42 1
  40   22   43 1
  41   23   44 1
  42   23   45 1
  43   23   46 1
  44   24   25 1
  45   24   27 1
  46   24   47 1
  47   25   26 1
  48   25   48 1
  49   25   49 1
  50   26   50 1
  51   26   51 1
  52   27   28 1
  53   27   52 1
  54   28   29 1
  55   28   53 1
  56   28   54 1
  57   29   30 1
  58   29   55 1
  59   29   56 1
  60   30   57 1

#	End of record

