#	Name: ASD05380009
#	Creating user name:	WinNT
#	Creation time:	15. 06. 2019 20:59

#	Modifying user name:	WinNT
#	Modification time:	15. 06. 2019 20:59

#	Program:	/corina/corina34_cracker 3.40 0067  02.08.2006

@<TRIPOS>MOLECULE
ASD05380009
  53   57    0    0    0
SMALL
NO_CHARGES


@<TRIPOS>ATOM
   1 C1            -0.1523     1.5355    -0.4228 C.ar    
   2 C2             0.0166     0.2202     0.0651 C.ar    
   3 C3             0.9436     2.2462    -0.9073 C.ar    
   4 C4             2.1892     1.6569    -0.9064 C.ar    
   5 C5             2.3587     0.3645    -0.4282 C.ar    
   6 C6             1.2887    -0.3547     0.0559 C.ar    
   7 C7             0.7680     3.6491    -1.4290 C.3     
   8 N8            -1.0648    -0.4524     0.5323 N.2     
   9 C9            -2.2477     0.0828     0.5416 C.2     
  10 N10           -2.5023     1.3414     0.0921 N.am    
  11 C11           -1.5032     2.1147    -0.3935 C.2     
  12 C12           -3.8092     1.8434     0.1370 C.ar    
  13 C13           -4.6673     1.6468    -0.9369 C.ar    
  14 C14           -4.2512     2.5336     1.2580 C.ar    
  15 C15           -5.5405     3.0269     1.2995 C.ar    
  16 C16           -6.3912     2.8337     0.2265 C.ar    
  17 C17           -5.9555     2.1426    -0.8893 C.ar    
  18 C18           -3.3970    -0.7317     1.0770 C.3     
  19 N19           -3.2094    -2.1386     0.7141 N.pl3   
  20 C20           -4.3076    -2.9828     0.6162 C.ar    
  21 N21           -5.5230    -2.5170     0.8504 N.ar    
  22 O22           -1.7165     3.2425    -0.7989 O.2     
  23 C23           -4.1288    -4.3289     0.2630 C.ar    
  24 C24           -5.2622    -5.1556     0.1725 C.ar    
  25 C25           -6.5139    -4.6044     0.4369 C.ar    
  26 C26           -6.6003    -3.2817     0.7694 C.ar    
  27 N27           -3.0538    -5.0979    -0.0381 N.2     
  28 C28           -3.4452    -6.3110    -0.3004 C.2     
  29 N29           -4.8000    -6.3995    -0.1845 N.pl3   
  30 C30           -3.4490    -0.6005     2.6005 C.3     
  31 C31           -4.6874    -1.3244     3.1327 C.3     
  32 H32            3.0410     2.2050    -1.2812 H       
  33 H33            3.3419    -0.0822    -0.4356 H       
  34 H34            1.4330    -1.3590     0.4260 H       
  35 H35            0.7871     4.3516    -0.5958 H       
  36 H36            1.5772     3.8835    -2.1205 H       
  37 H37           -0.1874     3.7268    -1.9479 H       
  38 H38           -4.3276     1.1071    -1.8085 H       
  39 H39           -3.5875     2.6842     2.0966 H       
  40 H40           -5.8849     3.5638     2.1710 H       
  41 H41           -7.3992     3.2198     0.2616 H       
  42 H42           -6.6221     1.9936    -1.7259 H       
  43 H43           -4.3309    -0.3675     0.6489 H       
  44 H44           -2.3180    -2.4804     0.5423 H       
  45 H45           -7.4041    -5.2129     0.3756 H       
  46 H46           -7.5698    -2.8505     0.9708 H       
  47 H47           -2.7921    -7.1275    -0.5710 H       
  48 H48           -5.3385    -7.1936    -0.3272 H       
  49 H49           -2.5535    -1.0455     3.0342 H       
  50 H50           -3.4993     0.4538     2.8729 H       
  51 H51           -4.6371    -2.3786     2.8604 H       
  52 H52           -4.7244    -1.2309     4.2181 H       
  53 H53           -5.5829    -0.8794     2.6990 H       
@<TRIPOS>BOND
   1    1    2 ar
   2    1    3 ar
   3    1   11 1
   4    2    8 1
   5    2    6 ar
   6    3    4 ar
   7    3    7 1
   8    4    5 ar
   9    4   32 1
  10    5    6 ar
  11    5   33 1
  12    6   34 1
  13    7   35 1
  14    7   36 1
  15    7   37 1
  16    8    9 2
  17    9   10 1
  18    9   18 1
  19   10   11 am
  20   10   12 1
  21   11   22 2
  22   12   13 ar
  23   12   14 ar
  24   13   17 ar
  25   13   38 1
  26   14   15 ar
  27   14   39 1
  28   15   16 ar
  29   15   40 1
  30   16   17 ar
  31   16   41 1
  32   17   42 1
  33   18   19 1
  34   18   30 1
  35   18   43 1
  36   19   20 1
  37   19   44 1
  38   20   21 ar
  39   20   23 ar
  40   21   26 ar
  41   23   24 ar
  42   23   27 1
  43   24   25 ar
  44   24   29 1
  45   25   26 ar
  46   25   45 1
  47   26   46 1
  48   27   28 2
  49   28   29 1
  50   28   47 1
  51   29   48 1
  52   30   31 1
  53   30   49 1
  54   30   50 1
  55   31   51 1
  56   31   52 1
  57   31   53 1

#	End of record

