#	Name: ASD01120405
#	Creating user name:	WinNT
#	Creation time:	15. 06. 2019 18:59

#	Modifying user name:	WinNT
#	Modification time:	15. 06. 2019 18:59

#	Program:	/corina/corina34_cracker 3.40 0067  02.08.2006

@<TRIPOS>MOLECULE
ASD01120405
  75   79    0    0    0
SMALL
NO_CHARGES


@<TRIPOS>ATOM
   1 C1            -3.9691     4.9787     2.0290 C.ar    
   2 N2            -0.0887     8.2282    -1.5832 N.am    
   3 O3            -5.1959     4.9115     2.6097 O.3     
   4 C4            -3.5483     3.9695     1.1751 C.ar    
   5 N5             1.0416     5.6790    -1.8789 N.am    
   6 O6            -1.8283     7.3479    -0.6047 O.2     
   7 C7            -2.3009     4.0405     0.5856 C.ar    
   8 N8             2.2679     2.9165    -3.9964 N.am    
   9 O9             2.7856     6.5491    -2.8569 O.2     
  10 C10           -1.4721     5.1161     0.8460 C.ar    
  11 O11            1.3805     4.9161    -4.3652 O.2     
  12 C12           -1.8892     6.1233     1.6966 C.ar    
  13 O13            3.4474     0.2604   -11.1732 O.3     
  14 C14           -3.1378     6.0596     2.2844 C.ar    
  15 C15           -0.1117     5.1908     0.2020 C.3     
  16 C16           -0.2475     5.7584    -1.2123 C.3     
  17 C17           -0.7487     7.1635    -1.1257 C.2     
  18 C18            1.2508     8.1523    -2.1672 C.3     
  19 C19            1.7195     6.7403    -2.3112 C.2     
  20 C20            1.6299     4.3535    -2.0868 C.3     
  21 C21            1.7500     4.0834    -3.5645 C.2     
  22 C22            2.3846     2.6539    -5.4329 C.3     
  23 C23            2.9990     1.2696    -5.6501 C.3     
  24 C24            3.1190     0.9995    -7.1278 C.ar    
  25 C25            4.2690     1.3618    -7.8045 C.ar    
  26 C26            4.3815     1.1153    -9.1591 C.ar    
  27 C27            3.3393     0.5036    -9.8405 C.ar    
  28 C28            2.1864     0.1410    -9.1593 C.ar    
  29 C29            2.0811     0.3846    -7.8036 C.ar    
  30 C30            3.0180     4.3053    -1.4452 C.3     
  31 C31            2.8916     4.5375     0.0618 C.3     
  32 C32            4.2862     4.5840     0.6894 C.3     
  33 C33            2.2089     8.9310    -1.2641 C.3     
  34 C34            1.6327    10.2767    -0.9102 C.ar    
  35 C35            2.5102    11.2558    -0.4617 C.ar    
  36 C36            2.0463    12.5071    -0.1120 C.ar    
  37 C37            0.6968    12.7909    -0.2063 C.ar    
  38 C38           -0.1767    11.8211    -0.6544 C.ar    
  39 C39            0.2896    10.5635    -1.0118 C.ar    
  40 C40           -0.7145     9.5587    -1.5172 C.3     
  41 H41           -5.2026     4.4572     3.4634 H       
  42 H42           -4.1951     3.1289     0.9717 H       
  43 H43           -1.9727     3.2549    -0.0788 H       
  44 H44            2.5634     2.2505    -3.3561 H       
  45 H45           -1.2400     6.9624     1.8984 H       
  46 H46            3.8302    -0.6017   -11.3859 H       
  47 H47           -3.4649     6.8487     2.9452 H       
  48 H48            0.5351     5.8390     0.7931 H       
  49 H49            0.3221     4.1920     0.1526 H       
  50 H50           -0.9702     5.1593    -1.7663 H       
  51 H51            1.2377     8.6248    -3.1494 H       
  52 H52            0.9919     3.5971    -1.6298 H       
  53 H53            1.3957     2.6883    -5.8901 H       
  54 H54            3.0226     3.4103    -5.8899 H       
  55 H55            3.9879     1.2352    -5.1930 H       
  56 H56            2.3609     0.5132    -5.1931 H       
  57 H57            5.0799     1.8382    -7.2736 H       
  58 H58            5.2799     1.3988    -9.6872 H       
  59 H59            1.3736    -0.3349    -9.6876 H       
  60 H60            1.1858     0.0983    -7.2718 H       
  61 H61            3.4681     3.3291    -1.6259 H       
  62 H62            3.6469     5.0816    -1.8809 H       
  63 H63            2.3803     5.4831     0.2421 H       
  64 H64            2.3193     3.7242     0.5080 H       
  65 H65            4.1961     4.7494     1.7630 H       
  66 H66            4.7975     3.6384     0.5092 H       
  67 H67            4.8585     5.3973     0.2432 H       
  68 H68            2.3820     8.3630    -0.3500 H       
  69 H69            3.1569     9.0718    -1.7833 H       
  70 H70            3.5649    11.0357    -0.3864 H       
  71 H71            2.7356    13.2627     0.2348 H       
  72 H72            0.3275    13.7675     0.0699 H       
  73 H73           -1.2313    12.0423    -0.7275 H       
  74 H74           -1.0520     9.8510    -2.5115 H       
  75 H75           -1.5676     9.5256    -0.8395 H       
@<TRIPOS>BOND
   1    1    3 1
   2    1    4 ar
   3    1   14 ar
   4    2   17 am
   5    2   18 1
   6    2   40 1
   7    3   41 1
   8    4    7 ar
   9    4   42 1
  10    5   16 1
  11    5   19 am
  12    5   20 1
  13    6   17 2
  14    7   10 ar
  15    7   43 1
  16    8   21 am
  17    8   22 1
  18    8   44 1
  19    9   19 2
  20   10   12 ar
  21   10   15 1
  22   11   21 2
  23   12   14 ar
  24   12   45 1
  25   13   27 1
  26   13   46 1
  27   14   47 1
  28   15   16 1
  29   15   48 1
  30   15   49 1
  31   16   17 1
  32   16   50 1
  33   18   19 1
  34   18   33 1
  35   18   51 1
  36   20   21 1
  37   20   30 1
  38   20   52 1
  39   22   23 1
  40   22   53 1
  41   22   54 1
  42   23   24 1
  43   23   55 1
  44   23   56 1
  45   24   25 ar
  46   24   29 ar
  47   25   26 ar
  48   25   57 1
  49   26   27 ar
  50   26   58 1
  51   27   28 ar
  52   28   29 ar
  53   28   59 1
  54   29   60 1
  55   30   31 1
  56   30   61 1
  57   30   62 1
  58   31   32 1
  59   31   63 1
  60   31   64 1
  61   32   65 1
  62   32   66 1
  63   32   67 1
  64   33   34 1
  65   33   68 1
  66   33   69 1
  67   34   35 ar
  68   34   39 ar
  69   35   36 ar
  70   35   70 1
  71   36   37 ar
  72   36   71 1
  73   37   38 ar
  74   37   72 1
  75   38   39 ar
  76   38   73 1
  77   39   40 1
  78   40   74 1
  79   40   75 1

#	End of record

