#	Name: ASD01903031
#	Creating user name:	WinNT
#	Creation time:	15. 06. 2019 19:54

#	Modifying user name:	WinNT
#	Modification time:	15. 06. 2019 19:54

#	Program:	/corina/corina34_cracker 3.40 0067  02.08.2006

@<TRIPOS>MOLECULE
ASD01903031
  38   40    0    0    0
SMALL
NO_CHARGES


@<TRIPOS>ATOM
   1 C1            -0.0638     1.3641    -0.1879 C.ar    
   2 C2            -0.0335    -0.0169    -0.1939 C.ar    
   3 C3             1.1743    -0.6855    -0.0434 C.ar    
   4 C4             2.3503     0.0328     0.1130 C.ar    
   5 C5             2.3211     1.4136     0.1192 C.ar    
   6 C6             1.1141     2.0834    -0.0312 C.ar    
   7 N7             1.0845     3.4829    -0.0254 N.am    
   8 C8             0.0449     4.1326     0.5347 C.2     
   9 O9            -0.9052     3.5058     0.9606 O.2     
  10 C10            0.0604     5.6107     0.6312 C.ar    
  11 O11            1.2039    -2.0450    -0.0489 O.3     
  12 C12            1.2222    -2.6768    -1.2493 C.ar    
  13 N13            1.3273    -1.9679    -2.3611 N.ar    
  14 C14            1.3488    -2.5423    -3.5489 C.ar    
  15 C15            1.2617    -3.9145    -3.6732 C.ar    
  16 C16            1.1501    -4.6943    -2.5300 C.ar    
  17 C17            1.1360    -4.0626    -1.2989 C.ar    
  18 Cl18          -1.5053    -0.9166    -0.3891 Cl      
  19 N19            1.1009     6.2898     0.1643 N.ar    
  20 C20            1.1541     7.6023     0.2306 C.ar    
  21 C21            0.1179     8.3290     0.7944 C.ar    
  22 C22           -0.9883     7.6594     1.2945 C.ar    
  23 C23           -1.0198     6.2768     1.2062 C.ar    
  24 C24            1.2868    -4.5589    -5.0352 C.3     
  25 F25            1.4040    -3.5694    -6.0172 F       
  26 F26            2.3781    -5.4303    -5.1187 F       
  27 F27            0.1017    -5.2753    -5.2341 F       
  28 H28           -1.0024     1.8845    -0.3094 H       
  29 H29            3.2893    -0.4878     0.2304 H       
  30 H30            3.2372     1.9725     0.2414 H       
  31 H31            1.8121     3.9851    -0.4245 H       
  32 H32            1.4354    -1.9311    -4.4352 H       
  33 H33            1.0800    -5.7698    -2.5997 H       
  34 H34            1.0505    -4.6385    -0.3893 H       
  35 H35            2.0175     8.1207    -0.1596 H       
  36 H36            0.1715     9.4065     0.8442 H       
  37 H37           -1.8087     8.2033     1.7390 H       
  38 H38           -1.8658     5.7229     1.5855 H       
@<TRIPOS>BOND
   1    1    2 ar
   2    1    6 ar
   3    1   28 1
   4    2    3 ar
   5    2   18 1
   6    3    4 ar
   7    3   11 1
   8    4    5 ar
   9    4   29 1
  10    5    6 ar
  11    5   30 1
  12    6    7 1
  13    7    8 am
  14    7   31 1
  15    8    9 2
  16    8   10 1
  17   10   19 ar
  18   10   23 ar
  19   11   12 1
  20   12   13 ar
  21   12   17 ar
  22   13   14 ar
  23   14   15 ar
  24   14   32 1
  25   15   16 ar
  26   15   24 1
  27   16   17 ar
  28   16   33 1
  29   17   34 1
  30   19   20 ar
  31   20   21 ar
  32   20   35 1
  33   21   22 ar
  34   21   36 1
  35   22   23 ar
  36   22   37 1
  37   23   38 1
  38   24   25 1
  39   24   26 1
  40   24   27 1

#	End of record

