#	Name: ASD05503014
#	Creating user name:	WinNT
#	Creation time:	15. 06. 2019 21:01

#	Modifying user name:	WinNT
#	Modification time:	15. 06. 2019 21:01

#	Program:	/corina/corina34_cracker 3.40 0067  02.08.2006

@<TRIPOS>MOLECULE
ASD05503014
  40   41    0    0    0
SMALL
NO_CHARGES


@<TRIPOS>ATOM
   1 C1            -0.1500     1.3617     0.4397 C.ar    
   2 C2            -0.0923    -0.0174     0.2836 C.ar    
   3 C3             1.1379    -0.6542     0.2032 C.ar    
   4 C4             2.3069     0.0893     0.2790 C.ar    
   5 C5             2.2423     1.4686     0.4352 C.ar    
   6 C6             1.0160     2.0994     0.5150 C.ar    
   7 N7            -1.2735    -0.7636     0.2080 N.am    
   8 C8            -1.3333    -1.8522    -0.5845 C.2     
   9 C9            -2.5622    -2.7245    -0.5750 C.3     
  10 O10           -0.3982    -2.1297    -1.3052 O.2     
  11 C11           -2.3729    -3.8829    -1.5564 C.3     
  12 C12           -3.6205    -4.7685    -1.5468 C.3     
  13 N13            3.5487    -0.5487     0.1988 N.am    
  14 C14            4.5818     0.0620    -0.4146 C.2     
  15 C15            5.8640    -0.6524    -0.5907 C.ar    
  16 O16            4.4592     1.2003    -0.8232 O.2     
  17 C17            6.0065    -1.9604    -0.1218 C.ar    
  18 C18            7.2035    -2.6294    -0.2853 C.ar    
  19 C19            8.2668    -2.0116    -0.9124 C.ar    
  20 C20            8.1383    -0.7030    -1.3860 C.ar    
  21 C21            6.9312    -0.0245    -1.2298 C.ar    
  22 C22            9.2425    -0.0630    -2.0355 C.1     
  23 N23           10.1185     0.4446    -2.5507 N.1     
  24 H24           -1.1072     1.8584     0.4979 H       
  25 H25            1.1854    -1.7263     0.0821 H       
  26 H26            3.1518     2.0479     0.4947 H       
  27 H27            0.9684     3.1715     0.6361 H       
  28 H28           -2.0493    -0.4975     0.7259 H       
  29 H29           -2.7191    -3.1203     0.4284 H       
  30 H30           -3.4290    -2.1343    -0.8724 H       
  31 H31           -2.2160    -3.4871    -2.5598 H       
  32 H32           -1.5061    -4.4731    -1.2590 H       
  33 H33           -4.4873    -4.1783    -1.8442 H       
  34 H34           -3.4856    -5.5938    -2.2460 H       
  35 H35           -3.7774    -5.1643    -0.5434 H       
  36 H36            3.6666    -1.4308     0.5847 H       
  37 H37            5.1787    -2.4496     0.3700 H       
  38 H38            7.3083    -3.6405     0.0795 H       
  39 H39            9.2002    -2.5404    -1.0370 H       
  40 H40            6.8262     0.9868    -1.5942 H       
@<TRIPOS>BOND
   1    1    2 ar
   2    1    6 ar
   3    1   24 1
   4    2    3 ar
   5    2    7 1
   6    3    4 ar
   7    3   25 1
   8    4    5 ar
   9    4   13 1
  10    5    6 ar
  11    5   26 1
  12    6   27 1
  13    7    8 am
  14    7   28 1
  15    8    9 1
  16    8   10 2
  17    9   11 1
  18    9   29 1
  19    9   30 1
  20   11   12 1
  21   11   31 1
  22   11   32 1
  23   12   33 1
  24   12   34 1
  25   12   35 1
  26   13   14 am
  27   13   36 1
  28   14   15 1
  29   14   16 2
  30   15   17 ar
  31   15   21 ar
  32   17   18 ar
  33   17   37 1
  34   18   19 ar
  35   18   38 1
  36   19   20 ar
  37   19   39 1
  38   20   21 ar
  39   20   22 1
  40   21   40 1
  41   22   23 3

#	End of record

