#	Name: ASD05430619
#	Creating user name:	WinNT
#	Creation time:	15. 06. 2019 21:00

#	Modifying user name:	WinNT
#	Modification time:	15. 06. 2019 21:00

#	Program:	/corina/corina34_cracker 3.40 0067  02.08.2006

@<TRIPOS>MOLECULE
ASD05430619
  36   38    0    0    0
SMALL
NO_CHARGES


@<TRIPOS>ATOM
   1 C1            -0.0169     1.3936     0.0097 C.ar    
   2 C2             0.0021    -0.0041     0.0020 C.ar    
   3 C3             1.2093    -0.6827    -0.0205 C.ar    
   4 C4             2.4012     0.0164    -0.0356 C.ar    
   5 C5             2.3879     1.4002    -0.0245 C.ar    
   6 C6             1.1892     2.0796     0.0019 C.ar    
   7 C7             3.6861     2.1652    -0.0403 C.3     
   8 C8             4.5125     1.7929     1.1924 C.3     
   9 C9             4.4706     1.8125    -1.3057 C.3     
  10 N10           -1.2045    -0.7212     0.0177 N.pl3   
  11 C11           -2.2435    -0.5342     0.8717 C.2     
  12 C12           -1.5587    -1.7383    -0.8301 C.2     
  13 C13           -2.7914    -2.1394    -0.4646 C.2     
  14 N14           -3.1847    -1.3887     0.5749 N.2     
  15 C15           -3.5921    -3.2384    -1.1142 C.3     
  16 C16            0.8592     3.5594     0.0369 C.3     
  17 C17           -0.6293     3.5459     0.4581 C.3     
  18 O18           -1.0735     2.2527     0.0139 O.3     
  19 F19            1.6417     4.2237     0.9876 F       
  20 F20            1.0156     4.1365    -1.2279 F       
  21 H21            1.2192    -1.7626    -0.0260 H       
  22 H22            3.3408    -0.5158    -0.0556 H       
  23 H23            3.4776     3.2350    -0.0284 H       
  24 H24            5.4515     2.3462     1.1810 H       
  25 H25            3.9536     2.0441     2.0939 H       
  26 H26            4.7210     0.7231     1.1805 H       
  27 H27            3.8819     2.0777    -2.1838 H       
  28 H28            5.4096     2.3659    -1.3171 H       
  29 H29            4.6791     0.7427    -1.3176 H       
  30 H30           -2.2841     0.1983     1.6643 H       
  31 H31           -0.9637    -2.1407    -1.6366 H       
  32 H32           -3.3711    -4.1869    -0.6247 H       
  33 H33           -4.6554    -3.0189    -1.0179 H       
  34 H34           -3.3288    -3.3044    -2.1699 H       
  35 H35           -0.7254     3.6362     1.5401 H       
  36 H36           -1.1809     4.3386    -0.0473 H       
@<TRIPOS>BOND
   1    1    2 ar
   2    1    6 ar
   3    1   18 1
   4    2    3 ar
   5    2   10 1
   6    3    4 ar
   7    3   21 1
   8    4    5 ar
   9    4   22 1
  10    5    6 ar
  11    5    7 1
  12    6   16 1
  13    7    8 1
  14    7    9 1
  15    7   23 1
  16    8   24 1
  17    8   25 1
  18    8   26 1
  19    9   27 1
  20    9   28 1
  21    9   29 1
  22   10   11 1
  23   10   12 1
  24   11   14 2
  25   11   30 1
  26   12   13 2
  27   12   31 1
  28   13   14 1
  29   13   15 1
  30   15   32 1
  31   15   33 1
  32   15   34 1
  33   16   17 1
  34   16   19 1
  35   16   20 1
  36   17   18 1
  37   17   35 1
  38   17   36 1

#	End of record

