#	Name: ASD01810416
#	Creating user name:	WinNT
#	Creation time:	15. 06. 2019 19:24

#	Modifying user name:	WinNT
#	Modification time:	15. 06. 2019 19:24

#	Program:	/corina/corina34_cracker 3.40 0067  02.08.2006

@<TRIPOS>MOLECULE
ASD01810416
  44   47    0    0    0
SMALL
NO_CHARGES


@<TRIPOS>ATOM
   1 C1            -7.3647     1.0045     0.3199 C.ar    
   2 C2            -7.2431    -0.3777     0.2834 C.ar    
   3 C3            -4.8529    -0.1873     0.1358 C.ar    
   4 C4            -4.9773     1.2124     0.1617 C.ar    
   5 C5            -6.2388     1.8042     0.2596 C.ar    
   6 N6            -3.6073    -0.7732     0.0400 N.pl3   
   7 C7            -2.4753    -0.0622    -0.0320 C.2     
   8 C8            -2.4715     1.3182    -0.0154 C.2     
   9 C9            -3.7550     2.0320     0.0842 C.2     
  10 O10           -3.8046     3.2495     0.1026 O.2     
  11 C11           -1.2070     2.0626    -0.0954 C.2     
  12 C12           -3.5200    -2.2354     0.0164 C.3     
  13 C13           -3.3489    -2.7511     1.4221 C.ar    
  14 O14           -0.1527     1.4629    -0.1770 O.2     
  15 O15           -1.2162     3.4105    -0.0784 O.3     
  16 C16           -4.4583    -2.9406     2.2262 C.ar    
  17 C17           -4.3074    -3.4127     3.5144 C.ar    
  18 C18           -3.0347    -3.6985     4.0043 C.ar    
  19 C19           -1.9207    -3.5056     3.1899 C.ar    
  20 C20           -2.0836    -3.0385     1.9014 C.ar    
  21 C21           -2.8662    -4.2058     5.3886 C.ar    
  22 C22           -1.5935    -4.4916     5.8785 C.ar    
  23 C23           -1.4426    -4.9632     7.1668 C.ar    
  24 C24           -2.5520    -5.1528     7.9710 C.ar    
  25 C25           -3.8178    -4.8712     7.4896 C.ar    
  26 C26           -3.9797    -4.3928     6.2051 C.ar    
  27 C27           -6.0017    -0.9739     0.1920 C.ar    
  28 F28           -5.9003    -2.3206     0.1575 F       
  29 F29           -6.3578     3.1495     0.2947 F       
  30 F30           -8.5883     1.5703     0.4091 F       
  31 H31           -8.1293    -0.9933     0.3273 H       
  32 H32           -1.5337    -0.5860    -0.1050 H       
  33 H33           -4.4333    -2.6471    -0.4130 H       
  34 H34           -2.6653    -2.5386    -0.5884 H       
  35 H35           -0.3597     3.8561    -0.1333 H       
  36 H36           -5.4442    -2.7185     1.8456 H       
  37 H37           -5.1742    -3.5600     4.1416 H       
  38 H38           -0.9320    -3.7256     3.5646 H       
  39 H39           -1.2209    -2.8887     1.2692 H       
  40 H40           -0.7267    -4.3445     5.2512 H       
  41 H41           -0.4566    -5.1851     7.5476 H       
  42 H42           -2.4294    -5.5225     8.9783 H       
  43 H43           -4.6806    -5.0214     8.1216 H       
  44 H44           -4.9684    -4.1729     5.8303 H       
@<TRIPOS>BOND
   1    1    2 ar
   2    1   30 1
   3    1    5 ar
   4    2   27 ar
   5    2   31 1
   6    3    4 ar
   7    3    6 1
   8    3   27 ar
   9    4    5 ar
  10    4    9 1
  11    5   29 1
  12    6    7 1
  13    6   12 1
  14    7    8 2
  15    7   32 1
  16    8    9 1
  17    8   11 1
  18    9   10 2
  19   11   14 2
  20   11   15 1
  21   12   13 1
  22   12   33 1
  23   12   34 1
  24   13   16 ar
  25   13   20 ar
  26   15   35 1
  27   16   17 ar
  28   16   36 1
  29   17   18 ar
  30   17   37 1
  31   18   19 ar
  32   18   21 1
  33   19   20 ar
  34   19   38 1
  35   20   39 1
  36   21   22 ar
  37   21   26 ar
  38   22   23 ar
  39   22   40 1
  40   23   24 ar
  41   23   41 1
  42   24   25 ar
  43   24   42 1
  44   25   26 ar
  45   25   43 1
  46   26   44 1
  47   27   28 1

#	End of record

