#	Name: ASD05303038
#	Creating user name:	WinNT
#	Creation time:	15. 06. 2019 20:58

#	Modifying user name:	WinNT
#	Modification time:	15. 06. 2019 20:58

#	Program:	/corina/corina34_cracker 3.40 0067  02.08.2006

@<TRIPOS>MOLECULE
ASD05303038
  42   45    0    0    0
SMALL
NO_CHARGES


@<TRIPOS>ATOM
   1 C1             0.5211     1.8460    -0.9808 C.ar    
   2 C2             0.4325     0.4930    -1.2481 C.ar    
   3 C3             1.4584    -0.3562    -0.8718 C.ar    
   4 C4             2.5721     0.1532    -0.2279 C.ar    
   5 C5             2.6663     1.5171     0.0402 C.ar    
   6 C6             1.6332     2.3598    -0.3388 C.ar    
   7 O7             3.7606     2.0227     0.6643 O.3     
   8 N8             3.6199    -0.6982     0.1686 N.am    
   9 C9             4.6190     1.1863     1.3016 C.ar    
  10 C10            4.5722    -0.1866     1.0693 C.ar    
  11 C11            5.4524    -1.0345     1.7180 C.ar    
  12 C12            6.3816    -0.5161     2.6029 C.ar    
  13 C13            6.4293     0.8452     2.8374 C.ar    
  14 C14            5.5517     1.6964     2.1909 C.ar    
  15 C15            3.7080    -1.9597    -0.2976 C.2     
  16 O16            2.7021    -2.5567    -0.6300 O.2     
  17 N17            4.9109    -2.5596    -0.3953 N.am    
  18 C18            5.0159    -4.0141    -0.5865 C.3     
  19 C19            5.9407    -4.2829    -1.7784 C.3     
  20 N20            7.2189    -3.5902    -1.5683 N.3     
  21 C21            7.0336    -2.1339    -1.5163 C.3     
  22 C22            6.1535    -1.7762    -0.3197 C.3     
  23 C23            8.1944    -3.9602    -2.6025 C.3     
  24 H24           -0.2801     2.5062    -1.2786 H       
  25 H25           -0.4381     0.0980    -1.7506 H       
  26 H26            1.3897    -1.4138    -1.0798 H       
  27 H27            1.6969     3.4181    -0.1332 H       
  28 H28            5.4142    -2.0981     1.5344 H       
  29 H29            7.0697    -1.1756     3.1108 H       
  30 H30            7.1549     1.2460     3.5297 H       
  31 H31            5.5942     2.7592     2.3780 H       
  32 H32            5.4322    -4.4722     0.3106 H       
  33 H33            4.0284    -4.4291    -0.7884 H       
  34 H34            6.1180    -5.3548    -1.8667 H       
  35 H35            5.4733    -3.9148    -2.6917 H       
  36 H36            8.0036    -1.6472    -1.4144 H       
  37 H37            6.5510    -1.7957    -2.4332 H       
  38 H38            5.9192    -0.7119    -0.3427 H       
  39 H39            6.6766    -2.0190     0.6052 H       
  40 H40            7.8056    -3.6863    -3.5833 H       
  41 H41            9.1316    -3.4332    -2.4231 H       
  42 H42            8.3698    -5.0354    -2.5685 H       
@<TRIPOS>BOND
   1    1    2 ar
   2    1    6 ar
   3    1   24 1
   4    2    3 ar
   5    2   25 1
   6    3    4 ar
   7    3   26 1
   8    4    5 ar
   9    4    8 1
  10    5    6 ar
  11    5    7 1
  12    6   27 1
  13    7    9 1
  14    8   10 1
  15    8   15 am
  16    9   10 ar
  17    9   14 ar
  18   10   11 ar
  19   11   12 ar
  20   11   28 1
  21   12   13 ar
  22   12   29 1
  23   13   14 ar
  24   13   30 1
  25   14   31 1
  26   15   16 2
  27   15   17 am
  28   17   18 1
  29   17   22 1
  30   18   19 1
  31   18   32 1
  32   18   33 1
  33   19   20 1
  34   19   34 1
  35   19   35 1
  36   20   21 1
  37   20   23 1
  38   21   22 1
  39   21   36 1
  40   21   37 1
  41   22   38 1
  42   22   39 1
  43   23   40 1
  44   23   41 1
  45   23   42 1

#	End of record

