#	Name: ASD01190232
#	Creating user name:	WinNT
#	Creation time:	15. 06. 2019 19:08

#	Modifying user name:	WinNT
#	Modification time:	15. 06. 2019 19:08

#	Program:	/corina/corina34_cracker 3.40 0067  02.08.2006

@<TRIPOS>MOLECULE
ASD01190232
  51   54    0    0    0
SMALL
NO_CHARGES


@<TRIPOS>ATOM
   1 N1             0.0536     1.0469    -0.1939 N.pl3   
   2 C2             0.1796    -0.0779    -0.9773 C.2     
   3 C3             1.5180    -0.4061    -1.0207 C.2     
   4 C4             2.1985     0.5411    -0.2492 C.2     
   5 C5             1.2842     1.4119     0.2412 C.2     
   6 C6            -0.9114    -0.7970    -1.6438 C.2     
   7 O7            -2.0661    -0.4639    -1.4521 O.2     
   8 N8            -0.6351    -1.8266    -2.4684 N.am    
   9 C9             3.6850     0.5847    -0.0058 C.3     
  10 C10            4.4224     0.5531    -1.3460 C.3     
  11 O11            4.0182     1.7859     0.6930 O.3     
  12 N12            5.1037    -4.0194     2.8923 N.pl3   
  13 N13            4.5961    -4.9881     2.0203 N.2     
  14 C14            4.0520    -4.4163     0.9836 C.2     
  15 C15            4.1902    -2.9725     1.1460 C.ar    
  16 C16            3.8104    -1.8665     0.3774 C.ar    
  17 C17            4.0939    -0.6072     0.8207 C.ar    
  18 C18            4.7565    -0.4137     2.0267 C.ar    
  19 C19            5.1376    -1.4777     2.7943 C.ar    
  20 C20            4.8616    -2.7739     2.3680 C.ar    
  21 C21            5.7500    -4.2782     4.1080 C.ar    
  22 C22            5.3495    -5.3510     4.8936 C.ar    
  23 C23            5.9878    -5.6045     6.0917 C.ar    
  24 C24            7.0266    -4.7897     6.5099 C.ar    
  25 C25            7.4275    -3.7193     5.7279 C.ar    
  26 C26            6.7956    -3.4658     4.5264 C.ar    
  27 F27            7.6495    -5.0390     7.6825 F       
  28 F28            4.0428     1.6596    -2.1134 F       
  29 F29            5.8024     0.5936    -1.1201 F       
  30 F30            4.0962    -0.6228    -2.0302 F       
  31 C31           -1.2011     1.7380     0.1133 C.3     
  32 C32           -1.8834     1.0508     1.2680 C.2     
  33 C33           -2.2164     1.7359     2.3338 C.2     
  34 H34            1.9580    -1.2379    -1.5508 H       
  35 H35            1.5005     2.2589     0.8754 H       
  36 H36            0.2791    -2.1345    -2.5703 H       
  37 H37           -1.3503    -2.2596    -2.9601 H       
  38 H38            3.5856     1.8733     1.5533 H       
  39 H39            3.5828    -4.9209     0.1520 H       
  40 H40            3.2959    -2.0086    -0.5615 H       
  41 H41            4.9730     0.5901     2.3613 H       
  42 H42            5.6523    -1.3136     3.7295 H       
  43 H43            4.5392    -5.9865     4.5680 H       
  44 H44            5.6765    -6.4385     6.7032 H       
  45 H45            8.2376    -3.0848     6.0559 H       
  46 H46            7.1117    -2.6339     3.9145 H       
  47 H47           -0.9896     2.7734     0.3802 H       
  48 H48           -1.8525     1.7138    -0.7603 H       
  49 H49           -2.0979    -0.0064     1.2169 H       
  50 H50           -2.7054     1.2435     3.1613 H       
  51 H51           -2.0019     2.7932     2.3849 H       
@<TRIPOS>BOND
   1    1    2 1
   2    1    5 1
   3    1   31 1
   4    2    3 2
   5    2    6 1
   6    3    4 1
   7    3   34 1
   8    4    5 2
   9    4    9 1
  10    5   35 1
  11    6    7 2
  12    6    8 am
  13    8   36 1
  14    8   37 1
  15    9   10 1
  16    9   11 1
  17    9   17 1
  18   10   28 1
  19   10   29 1
  20   10   30 1
  21   11   38 1
  22   12   13 1
  23   12   20 1
  24   12   21 1
  25   13   14 2
  26   14   15 1
  27   14   39 1
  28   15   16 ar
  29   15   20 ar
  30   16   17 ar
  31   16   40 1
  32   17   18 ar
  33   18   19 ar
  34   18   41 1
  35   19   20 ar
  36   19   42 1
  37   21   22 ar
  38   21   26 ar
  39   22   23 ar
  40   22   43 1
  41   23   24 ar
  42   23   44 1
  43   24   25 ar
  44   24   27 1
  45   25   26 ar
  46   25   45 1
  47   26   46 1
  48   31   32 1
  49   31   47 1
  50   31   48 1
  51   32   33 2
  52   32   49 1
  53   33   50 1
  54   33   51 1

#	End of record

