#	Name: ASD03092994
#	Creating user name:	WinNT
#	Creation time:	15. 06. 2019 20:33

#	Modifying user name:	WinNT
#	Modification time:	15. 06. 2019 20:33

#	Program:	/corina/corina34_cracker 3.40 0067  02.08.2006

@<TRIPOS>MOLECULE
ASD03092994
  42   44    0    0    0
SMALL
NO_CHARGES


@<TRIPOS>ATOM
   1 C1            -0.0187     1.5258     0.0104 C.3     
   2 C2             0.0021    -0.0041     0.0020 C.3     
   3 C3            -1.4333    -0.5336     0.0129 C.3     
   4 C4             0.7074    -0.4901    -1.2379 C.ar    
   5 C5             0.2349    -0.1600    -2.4986 C.ar    
   6 C6             0.9081    -0.6240    -3.6131 C.ar    
   7 N7             1.9868    -1.3717    -3.4866 N.ar    
   8 C8             2.4647    -1.7053    -2.3035 C.ar    
   9 C9             1.8480    -1.2734    -1.1448 C.ar    
  10 C10            3.7011    -2.5621    -2.2142 C.3     
  11 H11            3.6852    -3.4741    -2.8110 H       
  12 C12            4.4323    -2.6095    -0.8711 C.3     
  13 C13            5.0446    -1.8488    -2.0499 C.3     
  14 H14            5.0342    -0.7597    -2.0063 H       
  15 C15            6.2447    -2.4610    -2.7251 C.ar    
  16 C16            6.6405    -3.7450    -2.4000 C.ar    
  17 C17            7.7413    -4.3066    -3.0194 C.ar    
  18 C18            8.4461    -3.5845    -3.9642 C.ar    
  19 C19            8.0498    -2.3008    -4.2899 C.ar    
  20 C20            6.9464    -1.7408    -3.6737 C.ar    
  21 S21            9.8500    -4.2999    -4.7528 S.o2    
  22 N22            9.3066    -5.0768    -6.1106 N.am    
  23 O23           10.6520    -3.2171    -5.2039 O.2     
  24 O24           10.3303    -5.3108    -3.8772 O.2     
  25 H25            1.0039     1.9031     0.0027 H       
  26 H26           -0.5459     1.8868    -0.8726 H       
  27 H27           -0.5289     1.8773     0.9072 H       
  28 H28            0.5293    -0.3651     0.8851 H       
  29 H29           -1.9605    -0.1726    -0.8702 H       
  30 H30           -1.4185    -1.6235     0.0069 H       
  31 H31           -1.9435    -0.1821     0.9097 H       
  32 H32           -0.6483     0.4518    -2.6086 H       
  33 H33            0.5462    -0.3716    -4.5988 H       
  34 H34            2.2467    -1.5461    -0.1788 H       
  35 H35            4.0191    -2.0209    -0.0520 H       
  36 H36            4.8978    -3.5525    -0.5845 H       
  37 H37            6.0899    -4.3092    -1.6619 H       
  38 H38            8.0510    -5.3095    -2.7649 H       
  39 H39            8.6007    -1.7365    -5.0278 H       
  40 H40            6.6345    -0.7393    -3.9309 H       
  41 H41            8.3613    -5.0693    -6.3280 H       
  42 H42            9.9336    -5.5393    -6.6884 H       
@<TRIPOS>BOND
   1    1    2 1
   2    1   25 1
   3    1   26 1
   4    1   27 1
   5    2    3 1
   6    2    4 1
   7    2   28 1
   8    3   29 1
   9    3   30 1
  10    3   31 1
  11    4    9 ar
  12    4    5 ar
  13    5    6 ar
  14    5   32 1
  15    6    7 ar
  16    6   33 1
  17    7    8 ar
  18    8    9 ar
  19    8   10 1
  20    9   34 1
  21   10   11 1
  22   10   13 1
  23   10   12 1
  24   12   13 1
  25   12   35 1
  26   12   36 1
  27   13   14 1
  28   13   15 1
  29   15   20 ar
  30   15   16 ar
  31   16   17 ar
  32   16   37 1
  33   17   18 ar
  34   17   38 1
  35   18   19 ar
  36   18   21 1
  37   19   20 ar
  38   19   39 1
  39   20   40 1
  40   21   22 am
  41   21   23 2
  42   21   24 2
  43   22   41 1
  44   22   42 1

#	End of record

