#	Name: ASD03091874
#	Creating user name:	WinNT
#	Creation time:	15. 06. 2019 20:31

#	Modifying user name:	WinNT
#	Modification time:	15. 06. 2019 20:31

#	Program:	/corina/corina34_cracker 3.40 0067  02.08.2006

@<TRIPOS>MOLECULE
ASD03091874
  46   49    0    0    0
SMALL
NO_CHARGES


@<TRIPOS>ATOM
   1 N1             0.0008     1.4051     0.0242 N.pl3   
   2 N2             0.0101     0.0020     0.0846 N.2     
   3 C3             1.2700    -0.3712     0.0224 C.2     
   4 N4             2.0389     0.7222    -0.0730 N.2     
   5 C5             1.2887     1.7923    -0.0728 C.2     
   6 C6            -1.1255     2.2384     0.0530 C.ar    
   7 C7            -2.2460     1.9199    -0.7028 C.ar    
   8 C8            -3.3547     2.7429    -0.6720 C.ar    
   9 C9            -3.3498     3.8830     0.1105 C.ar    
  10 C10           -2.2354     4.2029     0.8642 C.ar    
  11 C11           -1.1256     3.3811     0.8417 C.ar    
  12 C12            1.7787     3.2144    -0.1652 C.3     
  13 C13            1.9868     3.5810    -1.6120 C.ar    
  14 C14            1.7590    -1.7716     0.0533 C.ar    
  15 C15            0.8538    -2.8262     0.1555 C.ar    
  16 C16            1.3138    -4.1269     0.1839 C.ar    
  17 C17            2.6717    -4.3850     0.1115 C.ar    
  18 C18            3.5750    -3.3411     0.0104 C.ar    
  19 C19            3.1248    -2.0371    -0.0255 C.ar    
  20 Br20           3.2951    -6.1698     0.1516 Br      
  21 S21           -4.7660     4.9307     0.1466 S.o2    
  22 O22           -4.3042     6.2162     0.5384 O.2     
  23 O23           -5.4713     4.6939    -1.0640 O.2     
  24 N24           -5.7432     4.3919     1.3702 N.am    
  25 C25            3.2379     3.4498    -2.1852 C.ar    
  26 C26            0.9255     4.0432    -2.3675 C.ar    
  27 C27            1.1164     4.3796    -3.6946 C.ar    
  28 C28            2.3688     4.2542    -4.2661 C.ar    
  29 C29            3.4288     3.7861    -3.5123 C.ar    
  30 H30           -2.2503     1.0297    -1.3143 H       
  31 H31           -4.2264     2.4958    -1.2599 H       
  32 H32           -2.2345     5.0940     1.4743 H       
  33 H33           -0.2571     3.6293     1.4338 H       
  34 H34            1.0395     3.8828     0.2763 H       
  35 H35            2.7218     3.3094     0.3730 H       
  36 H36           -0.2059    -2.6258     0.2127 H       
  37 H37            0.6130    -4.9449     0.2630 H       
  38 H38            4.6336    -3.5476    -0.0454 H       
  39 H39            3.8300    -1.2235    -0.1096 H       
  40 H40           -5.4761     3.6265     1.9029 H       
  41 H41           -6.5826     4.8417     1.5543 H       
  42 H42            4.0662     3.0848    -1.5960 H       
  43 H43           -0.0530     4.1412    -1.9209 H       
  44 H44            0.2870     4.7400    -4.2850 H       
  45 H45            2.5179     4.5166    -5.3031 H       
  46 H46            4.4063     3.6839    -3.9601 H       
@<TRIPOS>BOND
   1    1    2 1
   2    1    5 1
   3    1    6 1
   4    2    3 2
   5    3    4 1
   6    3   14 1
   7    4    5 2
   8    5   12 1
   9    6    7 ar
  10    6   11 ar
  11    7    8 ar
  12    7   30 1
  13    8    9 ar
  14    8   31 1
  15    9   10 ar
  16    9   21 1
  17   10   11 ar
  18   10   32 1
  19   11   33 1
  20   12   13 1
  21   12   34 1
  22   12   35 1
  23   13   26 ar
  24   13   25 ar
  25   14   15 ar
  26   14   19 ar
  27   15   16 ar
  28   15   36 1
  29   16   17 ar
  30   16   37 1
  31   17   18 ar
  32   17   20 1
  33   18   19 ar
  34   18   38 1
  35   19   39 1
  36   21   22 2
  37   21   23 2
  38   21   24 am
  39   24   40 1
  40   24   41 1
  41   25   29 ar
  42   25   42 1
  43   26   27 ar
  44   26   43 1
  45   27   28 ar
  46   27   44 1
  47   28   29 ar
  48   28   45 1
  49   29   46 1

#	End of record

