#	Name: ASD03930122
#	Creating user name:	WinNT
#	Creation time:	15. 06. 2019 20:47

#	Modifying user name:	WinNT
#	Modification time:	15. 06. 2019 20:47

#	Program:	/corina/corina34_cracker 3.40 0067  02.08.2006

@<TRIPOS>MOLECULE
ASD03930122
  53   55    0    0    0
SMALL
NO_CHARGES


@<TRIPOS>ATOM
   1 C1            -0.0167     1.3783     0.0096 C.ar    
   2 C2             0.0021    -0.0041     0.0020 C.ar    
   3 C3             1.2080    -0.6769    -0.0131 C.ar    
   4 C4             2.3998     0.0287    -0.0203 C.ar    
   5 C5             2.3810     1.4107    -0.0127 C.ar    
   6 C6             1.1706     2.0837     0.0021 C.ar    
   7 C7             3.8311    -0.4635    -0.0361 C.3     
   8 C8             4.6800     0.7485     0.4028 C.3     
   9 C9             3.7985     1.9418    -0.0229 C.3     
  10 N10            5.9624     0.7698    -0.3051 N.am    
  11 C11           -1.2922    -0.7760     0.0107 C.3     
  12 N12           -1.7253    -1.0187    -1.3676 N.pl3   
  13 N13           -1.9198    -0.0434    -2.3542 N.2     
  14 C14           -2.3054    -0.6430    -3.4513 C.2     
  15 C15           -2.3688    -2.0173    -3.1990 C.2     
  16 C16           -2.0018    -2.2218    -1.9127 C.2     
  17 C17           -2.6263     0.0307    -4.7605 C.3     
  18 F18           -2.3398     1.3967    -4.6646 F       
  19 F19           -1.8536    -0.5374    -5.7791 F       
  20 F20           -3.9834    -0.1417    -5.0534 F       
  21 S21            7.3250     1.3094     0.4661 S.o2    
  22 O22            8.3461     1.2116    -0.5173 O.2     
  23 O23            6.9465     2.5679     1.0066 O.2     
  24 C24            7.6015     0.1039     1.7930 C.3     
  25 C25           -2.7689    -3.0826    -4.1869 C.3     
  26 C26           -1.5502    -3.4930    -5.0159 C.3     
  27 C27            7.8015    -1.2861     1.1857 C.3     
  28 C28            8.8482     0.4974     2.5878 C.3     
  29 O29           -1.9296    -4.5032    -5.9528 O.3     
  30 H30           -0.9589     1.9061     0.0169 H       
  31 H31            1.2219    -1.7568    -0.0190 H       
  32 H32            1.1552     3.1635     0.0081 H       
  33 H33            3.9557    -1.2870     0.6671 H       
  34 H34            4.1119    -0.7778    -1.0414 H       
  35 H35            4.8319     0.7447     1.4821 H       
  36 H36            4.0704     2.2746    -1.0246 H       
  37 H37            3.9007     2.7606     0.6893 H       
  38 H38            6.0135     0.4678    -1.2255 H       
  39 H39           -1.1433    -1.7292     0.5180 H       
  40 H40           -2.0549    -0.2005     0.5352 H       
  41 H41           -1.9472    -3.1762    -1.4102 H       
  42 H42            6.7370     0.0894     2.4567 H       
  43 H43           -3.1521    -3.9505    -3.6502 H       
  44 H44           -3.5433    -2.6930    -4.8477 H       
  45 H45           -1.1670    -2.6252    -5.5527 H       
  46 H46           -0.7758    -3.8826    -4.3552 H       
  47 H47            8.6660    -1.2717     0.5220 H       
  48 H48            7.9677    -2.0105     1.9831 H       
  49 H49            6.9133    -1.5664     0.6195 H       
  50 H50            8.7058     1.4876     3.0205 H       
  51 H51            9.0144    -0.2270     3.3852 H       
  52 H52            9.7127     0.5118     1.9241 H       
  53 H53           -1.2047    -4.8117    -6.5135 H       
@<TRIPOS>BOND
   1    1    2 ar
   2    1    6 ar
   3    1   30 1
   4    2    3 ar
   5    2   11 1
   6    3    4 ar
   7    3   31 1
   8    4    5 ar
   9    4    7 1
  10    5    6 ar
  11    5    9 1
  12    6   32 1
  13    7    8 1
  14    7   33 1
  15    7   34 1
  16    8    9 1
  17    8   10 1
  18    8   35 1
  19    9   36 1
  20    9   37 1
  21   10   21 am
  22   10   38 1
  23   11   12 1
  24   11   39 1
  25   11   40 1
  26   12   13 1
  27   12   16 1
  28   13   14 2
  29   14   15 1
  30   14   17 1
  31   15   16 2
  32   15   25 1
  33   16   41 1
  34   17   18 1
  35   17   19 1
  36   17   20 1
  37   21   22 2
  38   21   23 2
  39   21   24 1
  40   24   27 1
  41   24   28 1
  42   24   42 1
  43   25   26 1
  44   25   43 1
  45   25   44 1
  46   26   29 1
  47   26   45 1
  48   26   46 1
  49   27   47 1
  50   27   48 1
  51   27   49 1
  52   28   50 1
  53   28   51 1
  54   28   52 1
  55   29   53 1

#	End of record

