#	Name: ASD01811435
#	Creating user name:	WinNT
#	Creation time:	15. 06. 2019 19:26

#	Modifying user name:	WinNT
#	Modification time:	15. 06. 2019 19:26

#	Program:	/corina/corina34_cracker 3.40 0067  02.08.2006

@<TRIPOS>MOLECULE
ASD01811435
  68   72    0    0    0
SMALL
NO_CHARGES


@<TRIPOS>ATOM
   1 N1            -0.1513     1.1023     1.4277 N.am    
   2 C2            -0.1541    -0.2249     1.1936 C.2     
   3 O3             0.7290    -0.9247     1.6505 O.2     
   4 N4            -1.1359    -0.7765     0.4532 N.am    
   5 C5             0.9159     1.7019     2.2326 C.3     
   6 O6             2.7315     4.1903     0.2966 O.3     
   7 C7             1.6402     3.2662     0.3795 C.3     
   8 C8             2.0703     2.1194     1.3193 C.3     
   9 C9             3.2139     2.7765     2.1392 C.3     
  10 C10            3.8404     3.7108     1.0736 C.3     
  11 C11           -1.2121     1.9464     0.8722 C.3     
  12 C12           -1.0820    -2.1349     0.1197 C.ar    
  13 C13           -2.2568    -2.8668    -0.0058 C.ar    
  14 C14           -2.2090    -4.2083    -0.3353 C.ar    
  15 C15           -0.9942    -4.8300    -0.5420 C.ar    
  16 C16            0.1913    -4.1038    -0.4184 C.ar    
  17 C17            0.1426    -2.7486    -0.0909 C.ar    
  18 C18           -3.5873    -2.1957     0.2187 C.3     
  19 C19            1.4941    -4.7673    -0.6392 C.2     
  20 O20            2.3398    -4.2316    -1.3285 O.2     
  21 C21            2.5520    -7.7820     1.9275 C.3     
  22 O22            2.3252    -9.0049     1.2089 O.3     
  23 C23            3.2703    -9.9398     1.7622 C.3     
  24 C24            3.5117    -9.4939     3.1859 C.ar    
  25 C25            4.0466   -10.1311     4.2829 C.ar    
  26 C26            4.1471    -9.4528     5.4998 C.ar    
  27 C27            3.7037    -8.1319     5.5944 C.ar    
  28 C28            3.1702    -7.5046     4.4873 C.ar    
  29 C29            3.0738    -8.1802     3.2861 C.ar    
  30 N30            1.7438    -5.9660    -0.0760 N.am    
  31 C31            3.0666    -6.5922    -0.2058 C.3     
  32 C32            3.5891    -6.9337     1.1938 C.3     
  33 C33            1.2409    -7.0120     2.0708 C.3     
  34 C34            0.6983    -6.6699     0.6790 C.3     
  35 C35            4.7018   -10.1090     6.6453 C.1     
  36 N36            5.1419   -10.6296     7.5540 N.1     
  37 H37           -1.8799    -0.2322     0.1514 H       
  38 H38            0.5296     2.5780     2.7535 H       
  39 H39            1.2739     0.9745     2.9612 H       
  40 H40            0.7615     3.7673     0.7856 H       
  41 H41            1.4162     2.8688    -0.6104 H       
  42 H42            2.4384     1.2672     0.7481 H       
  43 H43            2.8173     3.3480     2.9784 H       
  44 H44            3.9324     2.0306     2.4789 H       
  45 H45            4.5323     3.1538     0.4419 H       
  46 H46            4.3532     4.5435     1.5551 H       
  47 H47           -2.0370     2.0074     1.5820 H       
  48 H48           -0.8200     2.9458     0.6839 H       
  49 H49           -1.5684     1.5138    -0.0627 H       
  50 H50           -3.1253    -4.7719    -0.4311 H       
  51 H51           -0.9610    -5.8785    -0.7990 H       
  52 H52            1.0564    -2.1806     0.0021 H       
  53 H53           -3.9534    -1.7901    -0.7245 H       
  54 H54           -4.3015    -2.9241     0.6026 H       
  55 H55           -3.4693    -1.3873     0.9404 H       
  56 H56            2.8534   -10.9469     1.7497 H       
  57 H57            4.2017    -9.9113     1.1967 H       
  58 H58            4.3872   -11.1529     4.2028 H       
  59 H59            3.7781    -7.6023     6.5327 H       
  60 H60            2.8268    -6.4832     4.5600 H       
  61 H61            2.9830    -7.5039    -0.7973 H       
  62 H62            3.7527    -5.8994    -0.6931 H       
  63 H63            3.7662    -6.0136     1.7505 H       
  64 H64            4.5211    -7.4925     1.1078 H       
  65 H65            0.5148    -7.6261     2.6034 H       
  66 H66            1.4183    -6.0922     2.6281 H       
  67 H67           -0.1774    -6.0282     0.7757 H       
  68 H68            0.4258    -7.5874     0.1574 H       
@<TRIPOS>BOND
   1    1    2 am
   2    1    5 1
   3    1   11 1
   4    2    3 2
   5    2    4 am
   6    4   12 1
   7    4   37 1
   8    5    8 1
   9    5   38 1
  10    5   39 1
  11    6    7 1
  12    6   10 1
  13    7    8 1
  14    7   40 1
  15    7   41 1
  16    8    9 1
  17    8   42 1
  18    9   10 1
  19    9   43 1
  20    9   44 1
  21   10   45 1
  22   10   46 1
  23   11   47 1
  24   11   48 1
  25   11   49 1
  26   12   13 ar
  27   12   17 ar
  28   13   14 ar
  29   13   18 1
  30   14   15 ar
  31   14   50 1
  32   15   16 ar
  33   15   51 1
  34   16   17 ar
  35   16   19 1
  36   17   52 1
  37   18   53 1
  38   18   54 1
  39   18   55 1
  40   19   20 2
  41   19   30 am
  42   21   22 1
  43   21   29 1
  44   21   32 1
  45   21   33 1
  46   22   23 1
  47   23   24 1
  48   23   56 1
  49   23   57 1
  50   24   25 ar
  51   24   29 ar
  52   25   26 ar
  53   25   58 1
  54   26   27 ar
  55   26   35 1
  56   27   28 ar
  57   27   59 1
  58   28   29 ar
  59   28   60 1
  60   30   31 1
  61   30   34 1
  62   31   32 1
  63   31   61 1
  64   31   62 1
  65   32   63 1
  66   32   64 1
  67   33   34 1
  68   33   65 1
  69   33   66 1
  70   34   67 1
  71   34   68 1
  72   35   36 3

#	End of record

