#	Name: ASD01810376
#	Creating user name:	WinNT
#	Creation time:	15. 06. 2019 19:24

#	Modifying user name:	WinNT
#	Modification time:	15. 06. 2019 19:24

#	Program:	/corina/corina34_cracker 3.40 0067  02.08.2006

@<TRIPOS>MOLECULE
ASD01810376
  35   35    0    0    0
SMALL
NO_CHARGES


@<TRIPOS>ATOM
   1 C1             0.5638     1.3238     0.1107 C.2     
   2 S2             0.2699    -0.2095     0.0644 S.o     
   3 C3             0.9300    -0.7995     1.6477 C.3     
   4 C4             1.9253     1.9400    -0.0833 C.3     
   5 C5             0.5915     0.2078     2.7485 C.3     
   6 C6             2.8506     0.9286    -0.7630 C.3     
   7 C7             0.3061    -2.1547     1.9870 C.3     
   8 C8             2.4490    -0.9492     1.5429 C.3     
   9 C9             1.8004     3.1870    -0.9609 C.3     
  10 C10            2.5073     2.3297     1.2769 C.3     
  11 C11           -1.5299    -0.1160     0.3781 C.3     
  12 C12           -1.7396     1.3825     0.5084 C.2     
  13 C13           -0.5642     2.0208     0.3417 C.2     
  14 H14           -0.4889     0.3431     2.7974 H       
  15 H15            0.9548    -0.1650     3.7062 H       
  16 H16            1.0676     1.1627     2.5261 H       
  17 H17            2.5247     0.7719    -1.7913 H       
  18 H18            3.8715     1.3106    -0.7596 H       
  19 H19            2.8147    -0.0172    -0.2224 H       
  20 H20            0.5472    -2.8723     1.2028 H       
  21 H21            0.7028    -2.5092     2.9384 H       
  22 H22           -0.7761    -2.0480     2.0617 H       
  23 H23            2.9035     0.0340     1.4217 H       
  24 H24            2.8314    -1.4170     2.4501 H       
  25 H25            2.6942    -1.5714     0.6822 H       
  26 H26            1.1412     3.9075    -0.4767 H       
  27 H27            2.7852     3.6327    -1.1013 H       
  28 H28            1.3858     2.9093    -1.9300 H       
  29 H29            2.4456     1.4792     1.9557 H       
  30 H30            3.5501     2.6228     1.1554 H       
  31 H31            1.9408     3.1650     1.6886 H       
  32 H32           -2.0945    -0.5178    -0.4632 H       
  33 H33           -1.7923    -0.6290     1.3033 H       
  34 H34           -2.6871     1.8638     0.7008 H       
  35 H35           -0.5258     3.0984     0.4021 H       
@<TRIPOS>BOND
   1    1    2 2
   2    1    4 1
   3    1   13 1
   4    2    3 1
   5    2   11 1
   6    3    5 1
   7    3    7 1
   8    3    8 1
   9    4    6 1
  10    4    9 1
  11    4   10 1
  12    5   14 1
  13    5   15 1
  14    5   16 1
  15    6   17 1
  16    6   18 1
  17    6   19 1
  18    7   20 1
  19    7   21 1
  20    7   22 1
  21    8   23 1
  22    8   24 1
  23    8   25 1
  24    9   26 1
  25    9   27 1
  26    9   28 1
  27   10   29 1
  28   10   30 1
  29   10   31 1
  30   11   12 1
  31   11   32 1
  32   11   33 1
  33   12   13 2
  34   12   34 1
  35   13   35 1

#	End of record

