#	Name: ASD00069065
#	Creating user name:	WinNT
#	Creation time:	15. 06. 2019 18:29

#	Modifying user name:	WinNT
#	Modification time:	15. 06. 2019 18:29

#	Program:	/corina/corina34_cracker 3.40 0067  02.08.2006

@<TRIPOS>MOLECULE
ASD00069065
  27   27    0    0    0
SMALL
NO_CHARGES


@<TRIPOS>ATOM
   1 C1            -0.0187     1.5258     0.0104 C.3     
   2 C2             0.0021    -0.0041     0.0020 C.3     
   3 C3             1.4167     2.0553    -0.0004 C.3     
   4 N4            -0.7292     2.0124    -1.1797 N.3     
   5 C5            -0.8729     3.4751    -1.1461 C.3     
   6 C6            -1.5636     3.9442    -2.4294 C.3     
   7 O7            -2.8232     3.2792    -2.5572 O.3     
   8 C8            -2.7204     1.8533    -2.5937 C.3     
   9 C9            -2.0414     1.3630    -1.3121 C.3     
  10 C10           -1.7882     5.4563    -2.3652 C.3     
  11 H11           -0.5289     1.8773     0.9072 H       
  12 H12            0.5123    -0.3556    -0.8948 H       
  13 H13            0.5293    -0.3651     0.8851 H       
  14 H14           -1.0205    -0.3814     0.0098 H       
  15 H15            1.9269     1.7038    -0.8972 H       
  16 H16            1.4019     3.1452     0.0056 H       
  17 H17            1.9439     1.6943     0.8826 H       
  18 H18           -1.4741     3.7621    -0.2834 H       
  19 H19            0.1122     3.9360    -1.0736 H       
  20 H20           -0.9368     3.7049    -3.2884 H       
  21 H21           -3.7171     1.4182    -2.6669 H       
  22 H22           -2.1273     1.5531    -3.4576 H       
  23 H23           -1.9093     0.2821    -1.3608 H       
  24 H24           -2.6613     1.6162    -0.4521 H       
  25 H25           -0.8282     5.9623    -2.2639 H       
  26 H26           -2.2800     5.7896    -3.2791 H       
  27 H27           -2.4167     5.6941    -1.5069 H       
@<TRIPOS>BOND
   1    1    2 1
   2    1    3 1
   3    1    4 1
   4    1   11 1
   5    2   12 1
   6    2   13 1
   7    2   14 1
   8    3   15 1
   9    3   16 1
  10    3   17 1
  11    4    5 1
  12    4    9 1
  13    5    6 1
  14    5   18 1
  15    5   19 1
  16    6    7 1
  17    6   10 1
  18    6   20 1
  19    7    8 1
  20    8    9 1
  21    8   21 1
  22    8   22 1
  23    9   23 1
  24    9   24 1
  25   10   25 1
  26   10   26 1
  27   10   27 1

#	End of record

