#	Name: ASD01208633
#	Creating user name:	WinNT
#	Creation time:	15. 06. 2019 19:10

#	Modifying user name:	WinNT
#	Modification time:	15. 06. 2019 19:10

#	Program:	/corina/corina34_cracker 3.40 0067  02.08.2006

@<TRIPOS>MOLECULE
ASD01208633
  23   24    0    0    0
SMALL
NO_CHARGES


@<TRIPOS>ATOM
   1 C1            -0.0167     1.3781     0.0096 C.ar    
   2 C2             0.0021    -0.0041     0.0020 C.ar    
   3 C3             1.2213    -0.6632    -0.0132 C.ar    
   4 C4             2.3826     0.0966    -0.0203 C.ar    
   5 C5             2.2848     1.4762    -0.0119 C.ar    
   6 N6             1.1067     2.0685     0.0026 N.ar    
   7 Cl7            3.9378    -0.6746    -0.0387 Cl      
   8 S8            -1.5603     2.2276     0.0215 S.o2    
   9 O9            -1.8443     2.5628    -1.3299 O.2     
  10 O10           -2.4366     1.4562     0.8316 O.2     
  11 N11           -1.3255     3.6598     0.8191 N.am    
  12 C12           -0.9336     5.0274     0.4466 C.3     
  13 C13           -0.3753     5.1961     1.8665 C.3     
  14 C14           -1.4236     4.1253     2.2107 C.3     
  15 H15           -0.9218    -0.5634     0.0082 H       
  16 H16            1.2664    -1.7422    -0.0191 H       
  17 H17            3.1835     2.0751    -0.0173 H       
  18 H18           -0.1676     5.0637    -0.3281 H       
  19 H19           -1.7810     5.6789     0.2331 H       
  20 H20            0.6578     4.8685     1.9824 H       
  21 H21           -0.5730     6.1714     2.3114 H       
  22 H22           -2.4002     4.5390     2.4622 H       
  23 H23           -1.0752     3.3930     2.9390 H       
@<TRIPOS>BOND
   1    1    2 ar
   2    1    6 ar
   3    1    8 1
   4    2    3 ar
   5    2   15 1
   6    3    4 ar
   7    3   16 1
   8    4    5 ar
   9    4    7 1
  10    5    6 ar
  11    5   17 1
  12    8    9 2
  13    8   10 2
  14    8   11 am
  15   11   12 1
  16   11   14 1
  17   12   13 1
  18   12   18 1
  19   12   19 1
  20   13   14 1
  21   13   20 1
  22   13   21 1
  23   14   22 1
  24   14   23 1

#	End of record

