#	Name: ASD01884761
#	Creating user name:	WinNT
#	Creation time:	15. 06. 2019 19:48

#	Modifying user name:	WinNT
#	Modification time:	15. 06. 2019 19:48

#	Program:	/corina/corina34_cracker 3.40 0067  02.08.2006

@<TRIPOS>MOLECULE
ASD01884761
  46   48    0    0    0
SMALL
NO_CHARGES


@<TRIPOS>ATOM
   1 C1            -0.0565     1.0710     1.4882 C.2     
   2 C2            -0.0336    -0.2316     0.9968 C.2     
   3 C3            -1.2185    -0.7905     0.5029 C.2     
   4 C4            -2.3694    -0.0616     0.5078 C.2     
   5 N5            -2.3932     1.2083     0.9860 N.am    
   6 C6            -1.2814     1.7868     1.4776 C.2     
   7 O7            -1.3248     2.9287     1.9034 O.2     
   8 C8            -3.6510     1.9594     0.9735 C.3     
   9 C9             1.1355     1.6762     2.0013 C.1     
  10 N10            2.0812     2.1563     2.4084 N.1     
  11 C11           -4.4014     1.7194     2.2851 C.3     
  12 C12           -5.7149     2.5039     2.2720 C.3     
  13 C13           -6.6283     1.9509     1.1761 C.3     
  14 C14           -6.4057     2.3645     3.6301 C.3     
  15 N15           -1.2206    -2.1016     0.0024 N.pl3   
  16 C16           -0.0316    -2.7982    -0.1166 C.2     
  17 C17            0.1335    -4.1513    -0.0447 C.2     
  18 C18            1.5274    -4.3336    -0.2289 C.2     
  19 N19            2.0376    -3.1352    -0.3853 N.2     
  20 O20            1.1874    -2.2775    -0.3315 O.3     
  21 C21            2.2628    -5.6232    -0.2416 C.ar    
  22 C22            3.6422    -5.6394    -0.4354 C.ar    
  23 C23            4.3211    -6.8411    -0.4464 C.ar    
  24 C24            3.6341    -8.0280    -0.2658 C.ar    
  25 C25            2.2644    -8.0176    -0.0733 C.ar    
  26 C26            1.5767    -6.8210    -0.0539 C.ar    
  27 H27            0.8837    -0.8017     0.9962 H       
  28 H28           -3.2782    -0.5016     0.1243 H       
  29 H29           -3.4380     3.0229     0.8661 H       
  30 H30           -4.2652     1.6256     0.1372 H       
  31 H31           -4.6144     0.6559     2.3925 H       
  32 H32           -3.7872     2.0532     3.1214 H       
  33 H33           -5.5079     3.5559     2.0759 H       
  34 H34           -7.5641     2.5097     1.1668 H       
  35 H35           -6.1362     2.0502     0.2086 H       
  36 H36           -6.8353     0.8989     1.3722 H       
  37 H37           -5.7550     2.7585     4.4108 H       
  38 H38           -7.3415     2.9234     3.6207 H       
  39 H39           -6.6127     1.3125     3.8262 H       
  40 H40           -2.0558    -2.5192    -0.2601 H       
  41 H41           -0.6215    -4.9067     0.1157 H       
  42 H42            4.1795    -4.7133    -0.5773 H       
  43 H43            5.3905    -6.8548    -0.5966 H       
  44 H44            4.1690    -8.9661    -0.2754 H       
  45 H45            1.7327    -8.9472     0.0665 H       
  46 H46            0.5073    -6.8140     0.0964 H       
@<TRIPOS>BOND
   1    1    2 2
   2    1    9 1
   3    1    6 1
   4    2    3 1
   5    2   27 1
   6    3    4 2
   7    3   15 1
   8    4    5 1
   9    4   28 1
  10    5    8 1
  11    5    6 am
  12    6    7 2
  13    8   11 1
  14    8   29 1
  15    8   30 1
  16    9   10 3
  17   11   12 1
  18   11   31 1
  19   11   32 1
  20   12   13 1
  21   12   14 1
  22   12   33 1
  23   13   34 1
  24   13   35 1
  25   13   36 1
  26   14   37 1
  27   14   38 1
  28   14   39 1
  29   15   16 1
  30   15   40 1
  31   16   17 2
  32   16   20 1
  33   17   18 1
  34   17   41 1
  35   18   19 2
  36   18   21 1
  37   19   20 1
  38   21   22 ar
  39   21   26 ar
  40   22   23 ar
  41   22   42 1
  42   23   24 ar
  43   23   43 1
  44   24   25 ar
  45   24   44 1
  46   25   26 ar
  47   25   45 1
  48   26   46 1

#	End of record

