#	Name: ASD01230343
#	Creating user name:	WinNT
#	Creation time:	15. 06. 2019 19:14

#	Modifying user name:	WinNT
#	Modification time:	15. 06. 2019 19:14

#	Program:	/corina/corina34_cracker 3.40 0067  02.08.2006

@<TRIPOS>MOLECULE
ASD01230343
  28   29    0    0    0
SMALL
NO_CHARGES


@<TRIPOS>ATOM
   1 C1            -0.0167     1.3790     0.0096 C.ar    
   2 C2             0.0021    -0.0041     0.0020 C.ar    
   3 C3             1.2084    -0.6786    -0.0131 C.ar    
   4 C4             2.3961     0.0288    -0.0207 C.ar    
   5 C5             2.3778     1.4111    -0.0131 C.ar    
   6 C6             1.1720     2.0865     0.0021 C.ar    
   7 C7             3.7111    -0.7070    -0.0367 C.3     
   8 C8             4.1361    -0.9452    -1.4627 C.ar    
   9 C9             4.9157    -0.0097    -2.1170 C.ar    
  10 C10            5.3055    -0.2281    -3.4251 C.ar    
  11 C11            4.9162    -1.3822    -4.0788 C.ar    
  12 C12            4.1374    -2.3181    -3.4243 C.ar    
  13 C13            3.7512    -2.1017    -2.1147 C.ar    
  14 C14            5.3404    -1.6199    -5.5053 C.3     
  15 F15            4.6820     0.0587     0.6176 F       
  16 F16            3.5664    -1.9349     0.6180 F       
  17 Br17          -1.6668     2.3025     0.0224 Br      
  18 H18           -0.9257    -0.5568     0.0083 H       
  19 H19            1.2231    -1.7585    -0.0187 H       
  20 H20            3.3059     1.9634    -0.0190 H       
  21 H21            1.1578     3.1664     0.0077 H       
  22 H22            5.2199     0.8920    -1.6063 H       
  23 H23            5.9140     0.5031    -3.9365 H       
  24 H24            3.8330    -3.2196    -3.9351 H       
  25 H25            3.1458    -2.8346    -1.6021 H       
  26 H26            6.2919    -2.1515    -5.5176 H       
  27 H27            4.5840    -2.2170    -6.0146 H       
  28 H28            5.4521    -0.6631    -6.0153 H       
@<TRIPOS>BOND
   1    1    2 ar
   2    1    6 ar
   3    1   17 1
   4    2    3 ar
   5    2   18 1
   6    3    4 ar
   7    3   19 1
   8    4    5 ar
   9    4    7 1
  10    5    6 ar
  11    5   20 1
  12    6   21 1
  13    7    8 1
  14    7   15 1
  15    7   16 1
  16    8    9 ar
  17    8   13 ar
  18    9   10 ar
  19    9   22 1
  20   10   11 ar
  21   10   23 1
  22   11   12 ar
  23   11   14 1
  24   12   13 ar
  25   12   24 1
  26   13   25 1
  27   14   26 1
  28   14   27 1
  29   14   28 1

#	End of record

