#	Name: ASD04882147
#	Creating user name:	WinNT
#	Creation time:	15. 06. 2019 20:54

#	Modifying user name:	WinNT
#	Modification time:	15. 06. 2019 20:54

#	Program:	/corina/corina34_cracker 3.40 0067  02.08.2006

@<TRIPOS>MOLECULE
ASD04882147
  84   88    0    0    0
SMALL
NO_CHARGES


@<TRIPOS>ATOM
   1 C1             0.1693     1.1600    -0.9398 C.2     
   2 C2             0.1007    -0.1097    -0.4418 C.2     
   3 C3            -1.0734    -0.9874    -0.4785 C.2     
   4 N4            -1.0067    -2.2246     0.0518 N.am    
   5 C5            -2.1586    -3.0186     0.1244 C.ar    
   6 C6            -2.0624    -4.4055    -0.0200 C.ar    
   7 C7            -3.2046    -5.1946     0.0523 C.ar    
   8 C8            -4.4346    -4.6132     0.2659 C.ar    
   9 C9            -4.5380    -3.2270     0.4112 C.ar    
  10 C10           -3.3904    -2.4318     0.3447 C.ar    
  11 N11           -0.8208    -4.9975    -0.2371 N.3     
  12 C12           -0.2716    -4.6057    -1.5427 C.3     
  13 C13           -0.9075    -6.4600    -0.1229 C.3     
  14 C14            0.4882    -7.0656    -0.2887 C.3     
  15 N15            1.0374    -6.6739    -1.5943 N.3     
  16 C16            1.1241    -5.2113    -1.7085 C.3     
  17 C17            2.2828    -7.2677    -1.8120 C.ar    
  18 C18            2.4708    -8.1121    -2.8986 C.ar    
  19 C19            3.3378    -7.0105    -0.9454 C.ar    
  20 C20            4.5676    -7.5992    -1.1635 C.ar    
  21 C21            4.7500    -8.4437    -2.2435 C.ar    
  22 C22            3.7036    -8.6977    -3.1109 C.ar    
  23 C23           -5.8558    -2.6044     0.6401 C.2     
  24 N24           -6.9611    -3.3726     0.7091 N.am    
  25 O25           -5.9447    -1.3983     0.7664 O.2     
  26 O26            1.3027    -0.4154     0.0891 O.3     
  27 C27            2.1318     0.6262    -0.0586 C.2     
  28 C28            1.4712     1.6216    -0.6900 C.2     
  29 O29           -2.1081    -0.5986    -0.9879 O.2     
  30 C30            3.5653     0.6791     0.4032 C.3     
  31 C31            1.3309    -8.3895    -3.8445 C.3     
  32 C32           -8.2697    -2.7544     0.9363 C.3     
  33 C33           -8.9104    -2.3037    -0.4001 C.3     
  34 N34          -10.3611    -2.2909    -0.1377 N.am    
  35 C35          -10.6472    -3.2097     0.9738 C.3     
  36 C36           -9.2994    -3.8008     1.4382 C.3     
  37 C37          -11.2737    -1.5578    -0.8057 C.2     
  38 O38          -12.5752    -1.6341    -0.4695 O.3     
  39 O39          -10.9219    -0.8281    -1.7113 O.2     
  40 C40          -13.5019    -0.8166    -1.2317 C.3     
  41 C41          -13.4349    -1.2116    -2.7083 C.3     
  42 C42          -14.9233    -1.0350    -0.7093 C.3     
  43 C43          -13.1241     0.6583    -1.0807 C.3     
  44 H44           -0.6232     1.7022    -1.4341 H       
  45 H45           -0.1611    -2.5653     0.3833 H       
  46 H46           -3.1272    -6.2660    -0.0597 H       
  47 H47           -5.3202    -5.2290     0.3209 H       
  48 H48           -3.4672    -1.3603     0.4566 H       
  49 H49           -0.9234    -4.9717    -2.3360 H       
  50 H50           -0.2055    -3.5191    -1.5981 H       
  51 H51           -1.3050    -6.7253     0.8568 H       
  52 H52           -1.5666    -6.8470    -0.9000 H       
  53 H53            1.1400    -6.6997     0.5046 H       
  54 H54            0.4221    -8.1522    -0.2332 H       
  55 H55            1.5216    -4.9460    -2.6881 H       
  56 H56            1.7832    -4.8243    -0.9313 H       
  57 H57            3.1963    -6.3505    -0.1023 H       
  58 H58            5.3882    -7.3997    -0.4902 H       
  59 H59            5.7131    -8.9023    -2.4123 H       
  60 H60            3.8493    -9.3577    -3.9533 H       
  61 H61           -6.8901    -4.3347     0.6083 H       
  62 H62            1.8700     2.5901    -0.9533 H       
  63 H63            3.8288    -0.2654     0.8792 H       
  64 H64            4.2171     0.8483    -0.4539 H       
  65 H65            3.6868     1.4927     1.1183 H       
  66 H66            1.3382    -7.6531    -4.6480 H       
  67 H67            1.4435    -9.3884    -4.2660 H       
  68 H68            0.3866    -8.3277    -3.3035 H       
  69 H69           -8.1894    -1.9194     1.6323 H       
  70 H70           -8.5647    -1.3055    -0.6689 H       
  71 H71           -8.6745    -3.0140    -1.1925 H       
  72 H72          -11.1154    -2.6651     1.7938 H       
  73 H73          -11.3052    -4.0094     0.6338 H       
  74 H74           -9.1225    -4.7702     0.9724 H       
  75 H75           -9.2680    -3.8824     2.5247 H       
  76 H76          -13.7041    -2.2624    -2.8159 H       
  77 H77          -14.1306    -0.5979    -3.2806 H       
  78 H78          -12.4223    -1.0560    -3.0805 H       
  79 H79          -14.9711    -0.7536     0.3426 H       
  80 H80          -15.6190    -0.4213    -1.2816 H       
  81 H81          -15.1925    -2.0857    -0.8169 H       
  82 H82          -12.1115     0.8139    -1.4529 H       
  83 H83          -13.8198     1.2720    -1.6530 H       
  84 H84          -13.1718     0.9397    -0.0288 H       
@<TRIPOS>BOND
   1    1    2 2
   2    1   28 1
   3    1   44 1
   4    2    3 1
   5    2   26 1
   6    3    4 am
   7    3   29 2
   8    4    5 1
   9    4   45 1
  10    5    6 ar
  11    5   10 ar
  12    6    7 ar
  13    6   11 1
  14    7    8 ar
  15    7   46 1
  16    8    9 ar
  17    8   47 1
  18    9   10 ar
  19    9   23 1
  20   10   48 1
  21   11   12 1
  22   11   13 1
  23   12   16 1
  24   12   49 1
  25   12   50 1
  26   13   14 1
  27   13   51 1
  28   13   52 1
  29   14   15 1
  30   14   53 1
  31   14   54 1
  32   15   16 1
  33   15   17 1
  34   16   55 1
  35   16   56 1
  36   17   18 ar
  37   17   19 ar
  38   18   31 1
  39   18   22 ar
  40   19   20 ar
  41   19   57 1
  42   20   21 ar
  43   20   58 1
  44   21   22 ar
  45   21   59 1
  46   22   60 1
  47   23   24 am
  48   23   25 2
  49   24   32 1
  50   24   61 1
  51   26   27 1
  52   27   28 2
  53   27   30 1
  54   28   62 1
  55   30   63 1
  56   30   64 1
  57   30   65 1
  58   31   66 1
  59   31   67 1
  60   31   68 1
  61   32   33 1
  62   32   36 1
  63   32   69 1
  64   33   34 1
  65   33   70 1
  66   33   71 1
  67   34   35 1
  68   34   37 am
  69   35   36 1
  70   35   72 1
  71   35   73 1
  72   36   74 1
  73   36   75 1
  74   37   38 1
  75   37   39 2
  76   38   40 1
  77   40   41 1
  78   40   42 1
  79   40   43 1
  80   41   76 1
  81   41   77 1
  82   41   78 1
  83   42   79 1
  84   42   80 1
  85   42   81 1
  86   43   82 1
  87   43   83 1
  88   43   84 1

#	End of record

