#	Name: ASD03320130
#	Creating user name:	WinNT
#	Creation time:	15. 06. 2019 20:36

#	Modifying user name:	WinNT
#	Modification time:	15. 06. 2019 20:36

#	Program:	/corina/corina34_cracker 3.40 0067  02.08.2006

@<TRIPOS>MOLECULE
ASD03320130
  45   47    0    0    0
SMALL
NO_CHARGES


@<TRIPOS>ATOM
   1 C1            -0.0181     1.4706     0.0148 C.2     
   2 C2             0.0015    -0.0045     0.0118 C.ar    
   3 C3             1.2205    -0.7002     0.0013 C.ar    
   4 C4             1.1911    -2.0690    -0.0012 C.ar    
   5 C5            -0.0388    -2.7267     0.0066 C.ar    
   6 N6            -1.1758    -2.0449     0.0165 N.ar    
   7 C7            -1.1918    -0.7281     0.0251 C.ar    
   8 O8             1.0269     2.0925     0.0082 O.2     
   9 N9            -1.1941     2.1289     0.0193 N.am    
  10 C10           -1.2149     3.5246     0.1327 C.ar    
  11 C11           -2.1832     4.2615    -0.5363 C.ar    
  12 C12           -2.2033     5.6376    -0.4236 C.ar    
  13 C13           -1.2565     6.2839     0.3576 C.ar    
  14 C14           -0.2886     5.5484     1.0258 C.ar    
  15 C15           -0.2707     4.1718     0.9187 C.ar    
  16 O16           -1.2769     7.6390     0.4681 O.3     
  17 C17           -0.2723     8.2382     1.2889 C.3     
  18 C18           -0.4548     9.7572     1.2912 C.3     
  19 F19           -0.3874     7.7527     2.5959 F       
  20 F20            0.9931     7.9213     0.7834 F       
  21 F21            0.5287    10.3439     2.0948 F       
  22 F22           -0.3398    10.2427    -0.0158 F       
  23 F23           -1.7202    10.0741     1.7967 F       
  24 N24           -0.0728    -4.1113     0.0037 N.3     
  25 C25           -1.4619    -4.6058     0.0131 C.3     
  26 C26           -1.6310    -5.5177    -1.2202 C.3     
  27 C27           -0.1741    -5.9418    -1.5437 C.3     
  28 C28            0.6125    -4.6556    -1.1879 C.3     
  29 O29           -2.4299    -6.6583    -0.8995 O.3     
  30 Br30           2.8026    -3.0584    -0.0159 Br      
  31 H31            2.1602    -0.1679    -0.0050 H       
  32 H32           -2.1360    -0.2040     0.0377 H       
  33 H33           -2.0262     1.6360    -0.0560 H       
  34 H34           -2.9202     3.7586    -1.1448 H       
  35 H35           -2.9562     6.2110    -0.9441 H       
  36 H36            0.4485     6.0522     1.6336 H       
  37 H37            0.4800     3.5989     1.4428 H       
  38 H38           -1.6464    -5.1757     0.9238 H       
  39 H39           -2.1546    -3.7665    -0.0485 H       
  40 H40           -2.0649    -4.9636    -2.0526 H       
  41 H41            0.1380    -6.7766    -0.9161 H       
  42 H42           -0.0643    -6.1871    -2.6000 H       
  43 H43            0.5662    -3.9426    -2.0111 H       
  44 H44            1.6488    -4.8976    -0.9522 H       
  45 H45           -2.5666    -7.2638    -1.6410 H       
@<TRIPOS>BOND
   1    1    2 1
   2    1    8 2
   3    1    9 am
   4    2    3 ar
   5    2    7 ar
   6    3    4 ar
   7    3   31 1
   8    4    5 ar
   9    4   30 1
  10    5    6 ar
  11    5   24 1
  12    6    7 ar
  13    7   32 1
  14    9   10 1
  15    9   33 1
  16   10   11 ar
  17   10   15 ar
  18   11   12 ar
  19   11   34 1
  20   12   13 ar
  21   12   35 1
  22   13   14 ar
  23   13   16 1
  24   14   15 ar
  25   14   36 1
  26   15   37 1
  27   16   17 1
  28   17   18 1
  29   17   19 1
  30   17   20 1
  31   18   21 1
  32   18   22 1
  33   18   23 1
  34   24   25 1
  35   24   28 1
  36   25   26 1
  37   25   38 1
  38   25   39 1
  39   26   27 1
  40   26   29 1
  41   26   40 1
  42   27   28 1
  43   27   41 1
  44   27   42 1
  45   28   43 1
  46   28   44 1
  47   29   45 1

#	End of record

