#	Name: ASD04220020
#	Creating user name:	WinNT
#	Creation time:	15. 06. 2019 20:48

#	Modifying user name:	WinNT
#	Modification time:	15. 06. 2019 20:48

#	Program:	/corina/corina34_cracker 3.40 0067  02.08.2006

@<TRIPOS>MOLECULE
ASD04220020
  61   63    0    0    0
SMALL
NO_CHARGES


@<TRIPOS>ATOM
   1 C1             0.0414     1.6422    -0.0334 C.3     
   2 N2            -0.0510     0.1839     0.0939 N.am    
   3 C3             0.8119    -0.6264    -0.7817 C.3     
   4 C4             2.2643    -0.3395    -0.4042 C.3     
   5 C5             2.5067     1.1429    -0.2915 C.ar    
   6 C6             3.8219     1.5865    -0.3707 C.ar    
   7 C7             4.1185     2.9322    -0.2659 C.ar    
   8 C8             3.0903     3.8518    -0.0789 C.ar    
   9 C9             1.7832     3.4077    -0.0046 C.ar    
  10 C10            1.4901     2.0545    -0.1139 C.ar    
  11 C11            0.5122    -2.0895    -0.5808 C.2     
  12 O12            1.1718    -2.7404     0.1945 O.2     
  13 O13           -0.4876    -2.6696    -1.2632 O.3     
  14 O14            3.3698     5.1782     0.0305 O.3     
  15 C15            2.2624     6.0611     0.2210 C.3     
  16 O16            5.4083     3.3559    -0.3446 O.3     
  17 C17            6.4095     2.3545    -0.5367 C.3     
  18 C18           -0.8914    -0.3911     0.9769 C.2     
  19 C19           -1.6719     0.4644     1.9413 C.3     
  20 C20           -2.5433    -0.4294     2.8260 C.3     
  21 O21           -1.0196    -1.5969     0.9953 O.2     
  22 C22           -3.3237     0.4261     3.7904 C.ar    
  23 C23           -4.5300     0.9883     3.3993 C.ar    
  24 C24           -5.2484     1.7752     4.2869 C.ar    
  25 C25           -4.7629     1.9988     5.5608 C.ar    
  26 C26           -3.5572     1.4363     5.9520 C.ar    
  27 C27           -2.8407     0.6457     5.0655 C.ar    
  28 O28           -3.0793     1.6564     7.2059 O.3     
  29 C29           -3.8713     2.4766     8.0673 C.3     
  30 O30           -5.0079     0.7683     2.1453 O.3     
  31 C31           -6.2561     1.3781     1.8105 C.3     
  32 C32           -0.7194    -4.0821    -1.0194 C.3     
  33 H33           -0.4772     1.9609    -0.9376 H       
  34 H34           -0.4217     2.1121     0.8343 H       
  35 H35            0.6407    -0.3536    -1.8231 H       
  36 H36            2.4862    -0.8128     0.5523 H       
  37 H37            2.9218    -0.7531    -1.1689 H       
  38 H38            4.6194     0.8727    -0.5153 H       
  39 H39            0.9834     4.1189     0.1400 H       
  40 H40            2.6237     7.0870     0.2924 H       
  41 H41            1.5792     5.9744    -0.6238 H       
  42 H42            1.7397     5.7952     1.1398 H       
  43 H43            7.3912     2.8262    -0.5820 H       
  44 H44            6.3829     1.6499     0.2945 H       
  45 H45            6.2182     1.8237    -1.4693 H       
  46 H46           -0.9809     1.0308     2.5658 H       
  47 H47           -2.3064     1.1536     1.3842 H       
  48 H48           -3.2342    -0.9958     2.2015 H       
  49 H49           -1.9087    -1.1186     3.3831 H       
  50 H50           -6.1873     2.2135     3.9822 H       
  51 H51           -5.3222     2.6118     6.2520 H       
  52 H52           -1.9037     0.2043     5.3715 H       
  53 H53           -3.3771     2.5712     9.0343 H       
  54 H54           -3.9892     3.4642     7.6213 H       
  55 H55           -4.8517     2.0200     8.2035 H       
  56 H56           -7.0304     1.0160     2.4867 H       
  57 H57           -6.1685     2.4605     1.9047 H       
  58 H58           -6.5214     1.1231     0.7845 H       
  59 H59           -1.5529    -4.4247    -1.6327 H       
  60 H60            0.1768    -4.6470    -1.2761 H       
  61 H61           -0.9561    -4.2351     0.0335 H       
@<TRIPOS>BOND
   1    1    2 1
   2    1   10 1
   3    1   33 1
   4    1   34 1
   5    2    3 1
   6    2   18 am
   7    3    4 1
   8    3   11 1
   9    3   35 1
  10    4    5 1
  11    4   36 1
  12    4   37 1
  13    5    6 ar
  14    5   10 ar
  15    6    7 ar
  16    6   38 1
  17    7    8 ar
  18    7   16 1
  19    8    9 ar
  20    8   14 1
  21    9   10 ar
  22    9   39 1
  23   11   12 2
  24   11   13 1
  25   13   32 1
  26   14   15 1
  27   15   40 1
  28   15   41 1
  29   15   42 1
  30   16   17 1
  31   17   43 1
  32   17   44 1
  33   17   45 1
  34   18   19 1
  35   18   21 2
  36   19   20 1
  37   19   46 1
  38   19   47 1
  39   20   22 1
  40   20   48 1
  41   20   49 1
  42   22   23 ar
  43   22   27 ar
  44   23   24 ar
  45   23   30 1
  46   24   25 ar
  47   24   50 1
  48   25   26 ar
  49   25   51 1
  50   26   27 ar
  51   26   28 1
  52   27   52 1
  53   28   29 1
  54   29   53 1
  55   29   54 1
  56   29   55 1
  57   30   31 1
  58   31   56 1
  59   31   57 1
  60   31   58 1
  61   32   59 1
  62   32   60 1
  63   32   61 1

#	End of record

