#	Name: ASD01882813
#	Creating user name:	WinNT
#	Creation time:	15. 06. 2019 19:45

#	Modifying user name:	WinNT
#	Modification time:	15. 06. 2019 19:45

#	Program:	/corina/corina34_cracker 3.40 0067  02.08.2006

@<TRIPOS>MOLECULE
ASD01882813
  43   46    0    0    0
SMALL
NO_CHARGES


@<TRIPOS>ATOM
   1 N1            -0.0165     1.3692     0.0096 N.pl3   
   2 O2             1.1412    -0.7243    -0.0127 O.3     
   3 C3             0.0021    -0.0041     0.0020 C.2     
   4 N4            -1.0753    -0.7270     0.0089 N.2     
   5 C5            -0.6823    -2.1496     0.0076 C.3     
   6 C6             0.8153    -2.0697     0.3922 C.3     
   7 C7             1.6390    -3.0940    -0.3909 C.3     
   8 O8             3.0178    -2.9666    -0.0377 O.3     
   9 C9             3.8916    -3.8096    -0.6484 C.ar    
  10 C10            5.2452    -3.7410    -0.3526 C.ar    
  11 C11            6.1314    -4.5989    -0.9747 C.ar    
  12 C12            5.6702    -5.5255    -1.8915 C.ar    
  13 C13            4.3216    -5.5956    -2.1884 C.ar    
  14 C14            3.4306    -4.7440    -1.5644 C.ar    
  15 C15            6.6391    -6.4602    -2.5687 C.3     
  16 C16            6.2774    -7.9271    -2.2532 C.3     
  17 C17            5.3627    -8.3048    -3.4377 C.3     
  18 C18            5.7890    -7.3980    -4.5722 C.ar    
  19 C19            5.5538    -7.4928    -5.9338 C.ar    
  20 C20            6.0495    -6.5322    -6.7933 C.ar    
  21 C21            6.7831    -5.4720    -6.2938 C.ar    
  22 C22            7.0186    -5.3758    -4.9365 C.ar    
  23 C23            6.5224    -6.3382    -4.0729 C.ar    
  24 H24            0.8168     1.8655     0.0043 H       
  25 H25           -0.8631     1.8427     0.0162 H       
  26 H26           -1.2463    -2.7101     0.7532 H       
  27 H27           -0.8071    -2.5872    -0.9829 H       
  28 H28            0.9511    -2.1991     1.4659 H       
  29 H29            1.2935    -4.0992    -0.1495 H       
  30 H30            1.5198    -2.9156    -1.4596 H       
  31 H31            5.6060    -3.0171     0.3632 H       
  32 H32            7.1853    -4.5456    -0.7450 H       
  33 H33            3.9639    -6.3197    -2.9054 H       
  34 H34            2.3767    -4.8024    -1.7930 H       
  35 H35            7.6583    -6.2447    -2.2482 H       
  36 H36            7.1704    -8.5519    -2.2387 H       
  37 H37            5.7378    -7.9987    -1.3088 H       
  38 H38            5.5111    -9.3493    -3.7121 H       
  39 H39            4.3186    -8.1249    -3.1816 H       
  40 H40            4.9812    -8.3209    -6.3247 H       
  41 H41            5.8647    -6.6092    -7.8545 H       
  42 H42            7.1718    -4.7201    -6.9646 H       
  43 H43            7.5918    -4.5473    -4.5470 H       
@<TRIPOS>BOND
   1    1    3 1
   2    1   24 1
   3    1   25 1
   4    2    3 1
   5    2    6 1
   6    3    4 2
   7    4    5 1
   8    5    6 1
   9    5   26 1
  10    5   27 1
  11    6    7 1
  12    6   28 1
  13    7    8 1
  14    7   29 1
  15    7   30 1
  16    8    9 1
  17    9   10 ar
  18    9   14 ar
  19   10   11 ar
  20   10   31 1
  21   11   12 ar
  22   11   32 1
  23   12   13 ar
  24   12   15 1
  25   13   14 ar
  26   13   33 1
  27   14   34 1
  28   15   16 1
  29   15   23 1
  30   15   35 1
  31   16   17 1
  32   16   36 1
  33   16   37 1
  34   17   18 1
  35   17   38 1
  36   17   39 1
  37   18   19 ar
  38   18   23 ar
  39   19   20 ar
  40   19   40 1
  41   20   21 ar
  42   20   41 1
  43   21   22 ar
  44   21   42 1
  45   22   23 ar
  46   22   43 1

#	End of record

