#	Name: ASD01816037
#	Creating user name:	WinNT
#	Creation time:	15. 06. 2019 19:34

#	Modifying user name:	WinNT
#	Modification time:	15. 06. 2019 19:34

#	Program:	/corina/corina34_cracker 3.40 0067  02.08.2006

@<TRIPOS>MOLECULE
ASD01816037
  53   58    0    0    0
SMALL
NO_CHARGES


@<TRIPOS>ATOM
   1 C1            -0.0167     1.3813     0.0096 C.ar    
   2 C2             0.0021    -0.0041     0.0020 C.ar    
   3 C3             1.1984    -0.6909    -0.0131 C.ar    
   4 C4             2.4015     0.0059    -0.0209 C.ar    
   5 C5             2.3790     1.4106    -0.0132 C.ar    
   6 C6             1.1663     2.0916     0.0022 C.ar    
   7 N7             3.6053    -0.6772    -0.0356 N.pl3   
   8 C8             4.7970    -0.0586    -0.0433 C.2     
   9 C9             4.9000     1.3103    -0.0373 C.2     
  10 C10            3.6670     2.1301    -0.0217 C.2     
  11 C11            5.9971     2.2729    -0.0432 C.2     
  12 N12            5.4245     3.4960    -0.0323 N.am    
  13 N13            4.0323     3.3799    -0.0195 N.2     
  14 C14            6.1264     4.7082    -0.0333 C.ar    
  15 O15            7.1914     2.0229    -0.0548 O.2     
  16 C16            3.5779    -2.1419    -0.0427 C.3     
  17 C17            6.5546     5.2634    -1.2317 C.ar    
  18 C18            7.2466     6.4588    -1.2297 C.ar    
  19 C19            7.5142     7.1036    -0.0359 C.ar    
  20 C20            7.0900     6.5550     1.1603 C.ar    
  21 C21            6.3912     5.3614     1.1656 C.ar    
  22 F22            5.9763     4.8253     2.3342 F       
  23 C23            3.5552    -2.6371    -1.4659 C.2     
  24 N24            4.6582    -2.9139    -2.2124 N.pl3   
  25 C25            4.2199    -3.3391    -3.4505 C.ar    
  26 C26            2.8164    -3.3003    -3.3994 C.ar    
  27 N27            2.4777    -2.8674    -2.1578 N.2     
  28 C28            4.8576    -3.7543    -4.6117 C.ar    
  29 C29            4.1076    -4.1258    -5.7071 C.ar    
  30 C30            2.7213    -4.0868    -5.6563 C.ar    
  31 C31            2.0768    -3.6812    -4.5222 C.ar    
  32 C32            1.9189    -4.4964    -6.8643 C.3     
  33 F33            2.7868    -4.8699    -7.8960 F       
  34 F34            1.0959    -5.5780    -6.5327 F       
  35 F35            1.1289    -3.4214    -7.2857 F       
  36 C36            6.0527    -2.7843    -1.7823 C.3     
  37 H37           -0.9602     1.9068     0.0170 H       
  38 H38           -0.9289    -0.5516     0.0083 H       
  39 H39            1.2004    -1.7709    -0.0186 H       
  40 H40            1.1506     3.1715     0.0077 H       
  41 H41            5.6983    -0.6536    -0.0540 H       
  42 H42            4.4657    -2.5244     0.4609 H       
  43 H43            2.6861    -2.4912     0.4778 H       
  44 H44            6.3471     4.7607    -2.1648 H       
  45 H45            7.5796     6.8905    -2.1620 H       
  46 H46            8.0561     8.0378    -0.0379 H       
  47 H47            7.3009     7.0609     2.0909 H       
  48 H48            5.9362    -3.7858    -4.6568 H       
  49 H49            4.6023    -4.4490    -6.6111 H       
  50 H50            0.9975    -3.6548    -4.4935 H       
  51 H51            6.3842    -3.7224    -1.3370 H       
  52 H52            6.6782    -2.5499    -2.6436 H       
  53 H53            6.1331    -1.9843    -1.0464 H       
@<TRIPOS>BOND
   1    1    2 ar
   2    1    6 ar
   3    1   37 1
   4    2    3 ar
   5    2   38 1
   6    3    4 ar
   7    3   39 1
   8    4    5 ar
   9    4    7 1
  10    5    6 ar
  11    5   10 1
  12    6   40 1
  13    7    8 1
  14    7   16 1
  15    8    9 2
  16    8   41 1
  17    9   10 1
  18    9   11 1
  19   10   13 2
  20   11   12 am
  21   11   15 2
  22   12   13 1
  23   12   14 1
  24   14   17 ar
  25   14   21 ar
  26   16   23 1
  27   16   42 1
  28   16   43 1
  29   17   18 ar
  30   17   44 1
  31   18   19 ar
  32   18   45 1
  33   19   20 ar
  34   19   46 1
  35   20   21 ar
  36   20   47 1
  37   21   22 1
  38   23   24 1
  39   23   27 2
  40   24   25 1
  41   24   36 1
  42   25   26 ar
  43   25   28 ar
  44   26   27 1
  45   26   31 ar
  46   28   29 ar
  47   28   48 1
  48   29   30 ar
  49   29   49 1
  50   30   31 ar
  51   30   32 1
  52   31   50 1
  53   32   33 1
  54   32   34 1
  55   32   35 1
  56   36   51 1
  57   36   52 1
  58   36   53 1

#	End of record

