#	Name: ASD06660201
#	Creating user name:	WinNT
#	Creation time:	15. 06. 2019 21:08

#	Modifying user name:	WinNT
#	Modification time:	15. 06. 2019 21:08

#	Program:	/corina/corina34_cracker 3.40 0067  02.08.2006

@<TRIPOS>MOLECULE
ASD06660201
  68   72    0    0    0
SMALL
NO_CHARGES


@<TRIPOS>ATOM
   1 C1            -0.0184     1.5028     0.0103 C.2     
   2 C2             0.0021    -0.0041     0.0020 C.3     
   3 C3            -0.7241    -0.5171    -1.2431 C.3     
   4 O4             1.0197     2.1211     0.0037 O.2     
   5 O5            -1.1898     2.1580     0.0194 O.3     
   6 C6             2.2975    -0.2015    -0.9670 C.2     
   7 N7             1.3897    -0.4735    -0.0138 N.am    
   8 C8             2.0180    -1.3179     1.0087 C.3     
   9 C9             3.4419    -1.5342     0.5609 C.ar    
  10 C10            4.5029    -2.2281     1.0953 C.ar    
  11 C11            5.7209    -2.2439     0.4367 C.ar    
  12 C12            5.8748    -1.5630    -0.7582 C.ar    
  13 C13            4.8174    -0.8641    -1.3026 C.ar    
  14 C14            3.5861    -0.8438    -0.6447 C.ar    
  15 O15            2.0857     0.4729    -1.9559 O.2     
  16 C16           -0.8113    -2.0207    -1.1900 C.ar    
  17 C17           -1.8983    -2.6278    -0.5884 C.ar    
  18 C18           -1.9814    -4.0054    -0.5380 C.ar    
  19 C19           -0.9713    -4.7813    -1.0925 C.ar    
  20 C20            0.1192    -4.1682    -1.6960 C.ar    
  21 C21            0.1932    -2.7901    -1.7480 C.ar    
  22 N22           -1.0519    -6.1748    -1.0428 N.3     
  23 C23            0.1154    -6.7927    -1.6847 C.3     
  24 C24           -0.0755    -8.3100    -1.7414 C.3     
  25 C25           -0.2456    -8.8516    -0.3193 C.3     
  26 C26           -1.4383    -8.1570     0.3437 C.3     
  27 C27           -1.2079    -6.6440     0.3399 C.3     
  28 C28           -0.4975   -10.3598    -0.3732 C.3     
  29 N29           -0.5413   -10.8966     0.9892 N.pl3   
  30 C30           -0.7596   -12.2539     1.1947 C.ar    
  31 C31           -0.9358   -13.0971     0.1020 C.ar    
  32 C32           -1.1521   -14.4454     0.3210 C.ar    
  33 C33           -1.1853   -14.9073     1.6304 C.ar    
  34 C34           -1.0027   -14.0145     2.6670 C.ar    
  35 N35           -0.7927   -12.7337     2.4282 N.ar    
  36 C36           -1.3481   -15.3920    -0.8351 C.3     
  37 H37           -0.4983    -0.3791     0.8948 H       
  38 H38           -1.7288    -0.0959    -1.2772 H       
  39 H39           -0.1736    -0.2164    -2.1345 H       
  40 H40           -1.1523     3.1243     0.0245 H       
  41 H41            2.0017    -0.8120     1.9741 H       
  42 H42            1.4977    -2.2732     1.0771 H       
  43 H43            4.3860    -2.7599     2.0280 H       
  44 H44            6.5532    -2.7890     0.8569 H       
  45 H45            6.8274    -1.5785    -1.2667 H       
  46 H46            4.9419    -0.3337    -2.2351 H       
  47 H47           -2.6831    -2.0240    -0.1572 H       
  48 H48           -2.8305    -4.4790    -0.0677 H       
  49 H49            0.9062    -4.7685    -2.1281 H       
  50 H50            1.0385    -2.3127    -2.2213 H       
  51 H51            0.2226    -6.4021    -2.6967 H       
  52 H52            1.0115    -6.5606    -1.1092 H       
  53 H53           -0.9638    -8.5434    -2.3284 H       
  54 H54            0.7981    -8.7697    -2.2037 H       
  55 H55            0.6581    -8.6527     0.2568 H       
  56 H56           -2.3480    -8.3879    -0.2105 H       
  57 H57           -1.5385    -8.5072     1.3710 H       
  58 H58           -0.3056    -6.4127     0.9059 H       
  59 H59           -2.0619    -6.1455     0.7984 H       
  60 H60           -1.4485   -10.5517    -0.8701 H       
  61 H61            0.3065   -10.8428    -0.9284 H       
  62 H62           -0.4180   -10.3049     1.7478 H       
  63 H63           -0.9043   -12.7040    -0.9034 H       
  64 H64           -1.3525   -15.9544     1.8353 H       
  65 H65           -1.0277   -14.3695     3.6867 H       
  66 H66           -0.3820   -15.7884    -1.1479 H       
  67 H67           -1.9951   -16.2132    -0.5267 H       
  68 H68           -1.8087   -14.8592    -1.6669 H       
@<TRIPOS>BOND
   1    1    2 1
   2    1    4 2
   3    1    5 1
   4    2    3 1
   5    2    7 1
   6    2   37 1
   7    3   16 1
   8    3   38 1
   9    3   39 1
  10    5   40 1
  11    6    7 am
  12    6   14 1
  13    6   15 2
  14    7    8 1
  15    8    9 1
  16    8   41 1
  17    8   42 1
  18    9   10 ar
  19    9   14 ar
  20   10   11 ar
  21   10   43 1
  22   11   12 ar
  23   11   44 1
  24   12   13 ar
  25   12   45 1
  26   13   14 ar
  27   13   46 1
  28   16   17 ar
  29   16   21 ar
  30   17   18 ar
  31   17   47 1
  32   18   19 ar
  33   18   48 1
  34   19   20 ar
  35   19   22 1
  36   20   21 ar
  37   20   49 1
  38   21   50 1
  39   22   23 1
  40   22   27 1
  41   23   24 1
  42   23   51 1
  43   23   52 1
  44   24   25 1
  45   24   53 1
  46   24   54 1
  47   25   26 1
  48   25   28 1
  49   25   55 1
  50   26   27 1
  51   26   56 1
  52   26   57 1
  53   27   58 1
  54   27   59 1
  55   28   29 1
  56   28   60 1
  57   28   61 1
  58   29   30 1
  59   29   62 1
  60   30   31 ar
  61   30   35 ar
  62   31   32 ar
  63   31   63 1
  64   32   33 ar
  65   32   36 1
  66   33   34 ar
  67   33   64 1
  68   34   35 ar
  69   34   65 1
  70   36   66 1
  71   36   67 1
  72   36   68 1

#	End of record

