#	Name: ASD01816330
#	Creating user name:	WinNT
#	Creation time:	15. 06. 2019 19:35

#	Modifying user name:	WinNT
#	Modification time:	15. 06. 2019 19:35

#	Program:	/corina/corina34_cracker 3.40 0067  02.08.2006

@<TRIPOS>MOLECULE
ASD01816330
  53   58    0    0    0
SMALL
NO_CHARGES


@<TRIPOS>ATOM
   1 C1            -0.0167     1.3813     0.0096 C.ar    
   2 C2             0.0021    -0.0041     0.0020 C.ar    
   3 C3             1.1983    -0.6909    -0.0131 C.ar    
   4 C4             2.4015     0.0060    -0.0203 C.ar    
   5 C5             2.3790     1.4106    -0.0126 C.ar    
   6 C6             1.1663     2.0916     0.0022 C.ar    
   7 N7             3.6053    -0.6771    -0.0345 N.pl3   
   8 C8             4.7970    -0.0585    -0.0420 C.2     
   9 C9             4.9000     1.3103    -0.0356 C.2     
  10 C10            3.6670     2.1302    -0.0205 C.2     
  11 C11            5.9971     2.2730    -0.0412 C.2     
  12 N12            5.4245     3.4961    -0.0303 N.am    
  13 N13            4.0322     3.3798    -0.0181 N.2     
  14 O14            7.1912     2.0231    -0.0530 O.2     
  15 C15            3.5779    -2.1419    -0.0411 C.3     
  16 C16            3.5555    -2.6375    -1.4641 C.ar    
  17 C17            4.7434    -2.8867    -2.1267 C.ar    
  18 C18            4.7261    -3.3406    -3.4310 C.ar    
  19 C19            3.5144    -3.5469    -4.0768 C.ar    
  20 C20            2.3235    -3.2962    -3.4087 C.ar    
  21 C21            2.3471    -2.8474    -2.1027 C.ar    
  22 N22            3.4937    -4.0071    -5.4008 N.pl3   
  23 C23            2.3888    -4.2483    -6.1422 C.2     
  24 C24            2.7955    -4.6777    -7.3593 C.2     
  25 C25            4.1945    -4.7000    -7.3630 C.2     
  26 N26            4.6138    -4.2926    -6.1920 N.2     
  27 C27            6.1236     4.7036    -0.0303 C.ar    
  28 C28            5.4237     5.9044    -0.0184 C.ar    
  29 C29            6.1295     7.0950    -0.0181 C.ar    
  30 C30            7.5164     7.0425    -0.0298 C.ar    
  31 C31            8.1466     5.8133    -0.0413 C.ar    
  32 N32            7.4475     4.6949    -0.0362 N.ar    
  33 C33            3.9168     5.9100    -0.0065 C.3     
  34 F34            3.4554     7.2307     0.0042 F       
  35 F35            3.4389     5.2583    -1.1485 F       
  36 F36            3.4570     5.2461     1.1360 F       
  37 H37           -0.9602     1.9068     0.0169 H       
  38 H38           -0.9288    -0.5516     0.0083 H       
  39 H39            1.2004    -1.7709    -0.0189 H       
  40 H40            1.1506     3.1715     0.0084 H       
  41 H41            5.6983    -0.6535    -0.0531 H       
  42 H42            4.4656    -2.5241     0.4629 H       
  43 H43            2.6860    -2.4909     0.4793 H       
  44 H44            5.6856    -2.7261    -1.6238 H       
  45 H45            5.6541    -3.5344    -3.9483 H       
  46 H46            1.3794    -3.4554    -3.9086 H       
  47 H47            1.4210    -2.6522    -1.5825 H       
  48 H48            1.3656    -4.1216    -5.8206 H       
  49 H49            2.1535    -4.9543    -8.1826 H       
  50 H50            4.8206    -4.9978    -8.1911 H       
  51 H51            5.6128     8.0433    -0.0094 H       
  52 H52            8.0969     7.9533    -0.0303 H       
  53 H53            9.2256     5.7674    -0.0505 H       
@<TRIPOS>BOND
   1    1    2 ar
   2    1    6 ar
   3    1   37 1
   4    2    3 ar
   5    2   38 1
   6    3    4 ar
   7    3   39 1
   8    4    5 ar
   9    4    7 1
  10    5    6 ar
  11    5   10 1
  12    6   40 1
  13    7    8 1
  14    7   15 1
  15    8    9 2
  16    8   41 1
  17    9   10 1
  18    9   11 1
  19   10   13 2
  20   11   12 am
  21   11   14 2
  22   12   13 1
  23   12   27 1
  24   15   16 1
  25   15   42 1
  26   15   43 1
  27   16   17 ar
  28   16   21 ar
  29   17   18 ar
  30   17   44 1
  31   18   19 ar
  32   18   45 1
  33   19   20 ar
  34   19   22 1
  35   20   21 ar
  36   20   46 1
  37   21   47 1
  38   22   23 1
  39   22   26 1
  40   23   24 2
  41   23   48 1
  42   24   25 1
  43   24   49 1
  44   25   26 2
  45   25   50 1
  46   27   28 ar
  47   27   32 ar
  48   28   29 ar
  49   28   33 1
  50   29   30 ar
  51   29   51 1
  52   30   31 ar
  53   30   52 1
  54   31   32 ar
  55   31   53 1
  56   33   34 1
  57   33   35 1
  58   33   36 1

#	End of record

