#	Name: ASD01917596
#	Creating user name:	WinNT
#	Creation time:	15. 06. 2019 20:09

#	Modifying user name:	WinNT
#	Modification time:	15. 06. 2019 20:09

#	Program:	/corina/corina34_cracker 3.40 0067  02.08.2006

@<TRIPOS>MOLECULE
ASD01917596
  22   21    0    0    0
SMALL
NO_CHARGES


@<TRIPOS>ATOM
   1 C1            -0.0184     1.5028     0.0103 C.2     
   2 C2             0.0021    -0.0041     0.0020 C.3     
   3 O3             1.0197     2.1211     0.0037 O.2     
   4 O4            -1.1898     2.1580     0.0194 O.3     
   5 C5            -1.1335     3.6089     0.0270 C.3     
   6 C6            -2.5551     4.1744     0.0369 C.3     
   7 C7            -3.3015     3.6996    -1.2115 C.3     
   8 C8            -3.2897     3.6860     1.2870 C.3     
   9 C9            -2.4967     5.6803     0.0448 C.2     
  10 O10           -1.4281     6.2432     0.0428 O.2     
  11 Cl11          -3.9653     6.6059     0.0568 Cl      
  12 H12            0.0168    -0.3729     1.0276 H       
  13 H13           -0.8878    -0.3767    -0.5053 H       
  14 H14            0.8920    -0.3525    -0.5222 H       
  15 H15           -0.6017     3.9472     0.9164 H       
  16 H16           -0.6102     3.9569    -0.8636 H       
  17 H17           -3.3438     2.6104    -1.2172 H       
  18 H18           -4.3143     4.1025    -1.2045 H       
  19 H19           -2.7782     4.0476    -2.1021 H       
  20 H20           -2.7579     4.0243     2.1763 H       
  21 H21           -4.3024     4.0889     1.2940 H       
  22 H22           -3.3319     2.5968     1.2812 H       
@<TRIPOS>BOND
   1    1    2 1
   2    1    3 2
   3    1    4 1
   4    2   12 1
   5    2   13 1
   6    2   14 1
   7    4    5 1
   8    5    6 1
   9    5   15 1
  10    5   16 1
  11    6    7 1
  12    6    8 1
  13    6    9 1
  14    7   17 1
  15    7   18 1
  16    7   19 1
  17    8   20 1
  18    8   21 1
  19    8   22 1
  20    9   10 2
  21    9   11 1

#	End of record

