#	Name: ASD00840123
#	Creating user name:	WinNT
#	Creation time:	15. 06. 2019 18:37

#	Modifying user name:	WinNT
#	Modification time:	15. 06. 2019 18:37

#	Program:	/corina/corina34_cracker 3.40 0067  02.08.2006

@<TRIPOS>MOLECULE
ASD00840123
  85   90    0    0    0
SMALL
NO_CHARGES


@<TRIPOS>ATOM
   1 N1            -0.0822     1.3688     0.0065 N.3     
   2 C2            -0.1703    -0.0903     0.1465 C.3     
   3 C3             0.5882    -0.5306     1.4006 C.3     
   4 C4             2.0523    -0.0978     1.2839 C.3     
   5 C5             2.1139     1.4199     1.0905 C.3     
   6 C6             1.3112     1.8036    -0.1546 C.3     
   7 N7            -2.2600     5.3668    -2.7891 N.am    
   8 C8            -1.7456     4.1258    -2.8179 C.2     
   9 C9            -2.6354     3.2545    -1.9571 C.3     
  10 C10           -3.7042     4.1998    -1.4585 C.ar    
  11 C11           -4.7988     4.0271    -0.6408 C.ar    
  12 C12           -5.6207     5.1025    -0.3504 C.ar    
  13 C13           -5.3374     6.3497    -0.8852 C.ar    
  14 C14           -4.2398     6.5234    -1.7058 C.ar    
  15 C15           -3.4092     5.4442    -2.0006 C.ar    
  16 O16           -0.7550     3.7703    -3.4207 O.2     
  17 F17           -6.1386     7.4002    -0.6027 F       
  18 C18           -4.0049     1.1566    -2.1717 C.ar    
  19 C19           -3.2488     2.1508    -2.7798 C.ar    
  20 C20           -3.0666     2.1143    -4.1510 C.ar    
  21 C21           -3.6503     1.0794    -4.8692 C.ar    
  22 C22           -4.3891     0.1251    -4.1991 C.ar    
  23 N23           -4.5452     0.1866    -2.8901 N.ar    
  24 O24           -4.1863     1.1780    -0.8273 O.3     
  25 C25           -4.9737     0.1279    -0.2621 C.3     
  26 C26           -5.0661     0.3187     1.2531 C.3     
  27 Cl27          -7.0021     4.8898     0.6793 Cl      
  28 S28           -1.6021     6.6576    -3.5912 S.o2    
  29 O29           -2.0476     7.8225    -2.9103 O.2     
  30 O30           -0.2289     6.3499    -3.7885 O.2     
  31 C31           -2.3362     6.7059    -5.1923 C.ar    
  32 C32           -3.4952     7.4302    -5.3998 C.ar    
  33 C33           -4.0711     7.4680    -6.6559 C.ar    
  34 C34           -3.4877     6.7820    -7.7046 C.ar    
  35 C35           -2.3282     6.0584    -7.4974 C.ar    
  36 C36           -1.7499     6.0241    -6.2423 C.ar    
  37 C37           -1.8556     2.6824    -0.8014 C.2     
  38 O38           -2.1282     3.0083     0.3346 O.2     
  39 N39           -0.8552     1.8087    -1.0302 N.am    
  40 N40            2.7723    -0.4660     2.5103 N.3     
  41 C41            4.2070    -0.1727     2.3869 C.3     
  42 C42            4.9066    -0.4954     3.7094 C.3     
  43 N43            4.6879    -1.9095     4.0439 N.3     
  44 C44            3.2532    -2.2028     4.1673 C.3     
  45 C45            2.5537    -1.8802     2.8448 C.3     
  46 C46            5.4079    -2.2778     5.2703 C.3     
  47 C47            4.9640    -3.6700     5.7238 C.3     
  48 H48           -1.2163    -0.3844     0.2327 H       
  49 H49            0.2696    -0.5665    -0.7299 H       
  50 H50            0.1402    -0.0656     2.2788 H       
  51 H51            0.5358    -1.6151     1.4957 H       
  52 H52            2.5114    -0.5929     0.4283 H       
  53 H53            1.6899     1.9155     1.9639 H       
  54 H54            3.1515     1.7288     0.9641 H       
  55 H55            1.7441     1.3186    -1.0295 H       
  56 H56            1.3412     2.8851    -0.2871 H       
  57 H57           -5.0159     3.0535    -0.2268 H       
  58 H58           -4.0249     7.4976    -2.1194 H       
  59 H59           -2.4840     2.8738    -4.6512 H       
  60 H60           -3.5279     1.0218    -5.9407 H       
  61 H61           -4.8456    -0.6818    -4.7531 H       
  62 H62           -5.9746     0.1521    -0.6931 H       
  63 H63           -4.5076    -0.8331    -0.4796 H       
  64 H64           -4.0652     0.2945     1.6841 H       
  65 H65           -5.5322     1.2798     1.4706 H       
  66 H66           -5.6668    -0.4822     1.6842 H       
  67 H67           -3.9509     7.9661    -4.5804 H       
  68 H68           -4.9770     8.0333    -6.8178 H       
  69 H69           -3.9380     6.8110    -8.6858 H       
  70 H70           -1.8726     5.5222    -8.3167 H       
  71 H71           -0.8420     5.4619    -6.0812 H       
  72 H72           -0.6842     1.4922    -1.9311 H       
  73 H73            4.6355    -0.7817     1.5908 H       
  74 H74            4.3435     0.8827     2.1513 H       
  75 H75            5.9755    -0.3060     3.6110 H       
  76 H76            4.4968     0.1330     4.5002 H       
  77 H77            3.1168    -3.2583     4.4029 H       
  78 H78            2.8247    -1.5939     4.9634 H       
  79 H79            1.4848    -2.0696     2.9432 H       
  80 H80            2.9634    -2.5085     2.0540 H       
  81 H81            6.4801    -2.2843     5.0741 H       
  82 H82            5.1863    -1.5527     6.0534 H       
  83 H83            5.1857    -4.3950     4.9407 H       
  84 H84            5.4983    -3.9432     6.6338 H       
  85 H85            3.8918    -3.6635     5.9200 H       
@<TRIPOS>BOND
   1    1    2 1
   2    1    6 1
   3    1   39 1
   4    2    3 1
   5    2   48 1
   6    2   49 1
   7    3    4 1
   8    3   50 1
   9    3   51 1
  10    4    5 1
  11    4   40 1
  12    4   52 1
  13    5    6 1
  14    5   53 1
  15    5   54 1
  16    6   55 1
  17    6   56 1
  18    7    8 am
  19    7   15 1
  20    7   28 am
  21    8    9 1
  22    8   16 2
  23    9   10 1
  24    9   19 1
  25    9   37 1
  26   10   11 ar
  27   10   15 ar
  28   11   12 ar
  29   11   57 1
  30   12   13 ar
  31   12   27 1
  32   13   14 ar
  33   13   17 1
  34   14   15 ar
  35   14   58 1
  36   18   19 ar
  37   18   23 ar
  38   18   24 1
  39   19   20 ar
  40   20   21 ar
  41   20   59 1
  42   21   22 ar
  43   21   60 1
  44   22   23 ar
  45   22   61 1
  46   24   25 1
  47   25   26 1
  48   25   62 1
  49   25   63 1
  50   26   64 1
  51   26   65 1
  52   26   66 1
  53   28   29 2
  54   28   30 2
  55   28   31 1
  56   31   32 ar
  57   31   36 ar
  58   32   33 ar
  59   32   67 1
  60   33   34 ar
  61   33   68 1
  62   34   35 ar
  63   34   69 1
  64   35   36 ar
  65   35   70 1
  66   36   71 1
  67   37   38 2
  68   37   39 am
  69   39   72 1
  70   40   41 1
  71   40   45 1
  72   41   42 1
  73   41   73 1
  74   41   74 1
  75   42   43 1
  76   42   75 1
  77   42   76 1
  78   43   44 1
  79   43   46 1
  80   44   45 1
  81   44   77 1
  82   44   78 1
  83   45   79 1
  84   45   80 1
  85   46   47 1
  86   46   81 1
  87   46   82 1
  88   47   83 1
  89   47   84 1
  90   47   85 1

#	End of record

