#	Name: ASD00431020
#	Creating user name:	WinNT
#	Creation time:	15. 06. 2019 18:35

#	Modifying user name:	WinNT
#	Modification time:	15. 06. 2019 18:35

#	Program:	/corina/corina34_cracker 3.40 0067  02.08.2006

@<TRIPOS>MOLECULE
ASD00431020
  29   29    0    0    0
SMALL
NO_CHARGES


@<TRIPOS>ATOM
   1 C1            -0.0167     1.3781     0.0096 C.ar    
   2 C2             0.0021    -0.0041     0.0020 C.ar    
   3 C3             1.1709     2.0855     0.0021 C.ar    
   4 C4             2.3773     1.4107    -0.0131 C.ar    
   5 C5             2.3960     0.0285    -0.0203 C.ar    
   6 C6             1.2084    -0.6789    -0.0132 C.ar    
   7 C7             1.2289    -2.1857    -0.0205 C.3     
   8 N8             1.2478    -2.6819     1.3620 N.3     
   9 C9             1.1505     3.5924     0.0099 C.3     
  10 C10            0.4341     4.0862     1.2684 C.3     
  11 C11            2.5859     4.1220    -0.0008 C.3     
  12 C12            0.4107     4.0988    -1.2299 C.3     
  13 H13           -0.9592     1.9054     0.0170 H       
  14 H14           -0.9258    -0.5567     0.0083 H       
  15 H15            3.3051     1.9634    -0.0197 H       
  16 H16            3.3385    -0.4987    -0.0329 H       
  17 H17            0.3394    -2.5587    -0.5283 H       
  18 H18            2.1191    -2.5345    -0.5439 H       
  19 H19            0.4660    -2.3195     1.8870 H       
  20 H20            1.2617    -3.6906     1.3840 H       
  21 H21            0.9612     3.7253     2.1517 H       
  22 H22            0.4194     5.1760     1.2741 H       
  23 H23           -0.5885     3.7089     1.2761 H       
  24 H24            3.0962     3.7702    -0.8974 H       
  25 H25            2.5711     5.2118     0.0048 H       
  26 H26            3.1129     3.7611     0.8824 H       
  27 H27           -0.6119     3.7216    -1.2222 H       
  28 H28            0.3959     5.1887    -1.2242 H       
  29 H29            0.9211     3.7471    -2.1265 H       
@<TRIPOS>BOND
   1    1    2 ar
   2    1    3 ar
   3    1   13 1
   4    2    6 ar
   5    2   14 1
   6    3    4 ar
   7    3    9 1
   8    4    5 ar
   9    4   15 1
  10    5    6 ar
  11    5   16 1
  12    6    7 1
  13    7    8 1
  14    7   17 1
  15    7   18 1
  16    8   19 1
  17    8   20 1
  18    9   10 1
  19    9   11 1
  20    9   12 1
  21   10   21 1
  22   10   22 1
  23   10   23 1
  24   11   24 1
  25   11   25 1
  26   11   26 1
  27   12   27 1
  28   12   28 1
  29   12   29 1

#	End of record

