#	Name: ASD00890011
#	Creating user name:	WinNT
#	Creation time:	15. 06. 2019 18:53

#	Modifying user name:	WinNT
#	Modification time:	15. 06. 2019 18:53

#	Program:	/corina/corina34_cracker 3.40 0067  02.08.2006

@<TRIPOS>MOLECULE
ASD00890011
 106  111    0    0    0
SMALL
NO_CHARGES


@<TRIPOS>ATOM
   1 C1             1.2189    -4.0541     4.3531 C.ar    
   2 C2             0.7639    -5.0085     3.4397 C.ar    
   3 C3            -0.3599    -4.7882     2.7031 C.ar    
   4 C4            -1.0739    -3.5918     2.8585 C.ar    
   5 C5            -0.6225    -2.6169     3.7817 C.ar    
   6 C6             0.5371    -2.8707     4.5329 C.ar    
   7 C7            -2.2446    -3.3360     2.1059 C.ar    
   8 C8            -2.8959    -2.1475     2.3044 C.ar    
   9 C9            -2.3956    -1.2262     3.2339 C.ar    
  10 N10           -1.3014    -1.4740     3.9327 N.ar    
  11 Br11           1.1658    -1.5897     5.7738 Br      
  12 O12           -2.7093    -4.2433     1.2115 O.3     
  13 C13           -3.8973    -3.8991     0.4958 C.3     
  14 C14           -5.1534    -4.2923     1.3016 C.3     
  15 N15           -6.1367    -4.8225     0.3459 N.am    
  16 C16           -5.5628    -4.7533    -1.0103 C.3     
  17 C17           -4.0291    -4.7539    -0.7924 C.3     
  18 C18           -3.1097     0.0547     3.4385 C.2     
  19 C19           -2.6853     0.9851     4.3148 C.2     
  20 N20           -4.2143     0.3713     2.7650 N.2     
  21 C21           -4.7528     1.5200     3.0281 C.2     
  22 S22           -3.8014     2.3473     4.2573 S.3     
  23 N23           -5.9019     2.0227     2.4305 N.am    
  24 C24           -6.3709     3.2353     2.7857 C.2     
  25 O25           -5.7899     3.8876     3.6270 O.2     
  26 C26           -7.6174     3.7805     2.1375 C.3     
  27 C27           -7.9300     5.1623     2.7153 C.3     
  28 C28           -7.3980     3.8967     0.6278 C.3     
  29 C29           -7.3600    -5.2944     0.6580 C.2     
  30 O30           -8.1194    -5.6400    -0.2222 O.2     
  31 C31           -7.7842    -5.3925     2.1007 C.3     
  32 N32           -9.2127    -5.0868     2.2116 N.am    
  33 C33           -7.5249    -6.8106     2.6132 C.3     
  34 C34           -6.0533    -7.1696     2.3978 C.3     
  35 C35           -7.8540    -6.8816     4.1057 C.3     
  36 C36           -8.4081    -7.7987     1.8486 C.3     
  37 C37           -9.7138    -4.6200     3.3724 C.2     
  38 O38           -8.9808    -4.4528     4.3270 O.2     
  39 O39          -11.0265    -4.3390     3.4743 O.3     
  40 C40          -11.4964    -3.8399     4.7543 C.3     
  41 C41          -12.7025    -2.9073     4.5459 C.3     
  42 C42          -13.8875    -3.5440     5.3010 C.3     
  43 C43          -13.2180    -4.4341     6.3773 C.3     
  44 C44          -11.9907    -5.0108     5.6288 C.3     
  45 C45           -5.9783    -5.9561    -1.8176 C.2     
  46 O46           -6.2107    -7.0087    -1.2618 O.2     
  47 N47           -6.0915    -5.8621    -3.1573 N.am    
  48 C48           -6.6011    -6.9971    -3.9308 C.3     
  49 C49           -8.1160    -7.2098    -3.9586 C.3     
  50 C50           -7.3933    -6.6867    -5.2024 C.3     
  51 C51           -8.6188    -8.6301    -3.9918 C.2     
  52 C52           -9.3875    -9.0755    -3.0292 C.2     
  53 O53            2.3431    -4.2982     5.0759 O.3     
  54 C54            3.0022    -5.5456     4.8488 C.3     
  55 C55           -5.7260    -8.2239    -3.9383 C.2     
  56 O56           -6.0817    -9.2162    -4.5289 O.2     
  57 O57           -4.5513    -8.2143    -3.2888 O.3     
  58 H58            1.3102    -5.9318     3.3162 H       
  59 H59           -0.7005    -5.5338     2.0000 H       
  60 H60           -3.7921    -1.9210     1.7459 H       
  61 H61           -3.9085    -2.8353     0.2588 H       
  62 H62           -4.8989    -5.0577     2.0347 H       
  63 H63           -5.5607    -3.4152     1.8044 H       
  64 H64           -5.8749    -3.8351    -1.5079 H       
  65 H65           -3.5154    -4.2809    -1.6293 H       
  66 H66           -3.6580    -5.7657    -0.6296 H       
  67 H67           -1.8115     0.9091     4.9450 H       
  68 H68           -6.3666     1.5009     1.7577 H       
  69 H69           -8.4524     3.1077     2.3326 H       
  70 H70           -7.0950     5.8351     2.5202 H       
  71 H71           -8.8316     5.5566     2.2465 H       
  72 H72           -8.0863     5.0795     3.7909 H       
  73 H73           -6.5630     4.5696     0.4327 H       
  74 H74           -7.1753     2.9123     0.2162 H       
  75 H75           -8.2996     4.2911     0.1590 H       
  76 H76           -7.2130    -4.6807     2.6966 H       
  77 H77           -9.7978    -5.2203     1.4496 H       
  78 H78           -5.4276    -6.5207     3.0105 H       
  79 H79           -5.8874    -8.2086     2.6825 H       
  80 H80           -5.7966    -7.0354     1.3470 H       
  81 H81           -8.9024    -6.6259     4.2592 H       
  82 H82           -7.6693    -7.8919     4.4708 H       
  83 H83           -7.2248    -6.1777     4.6504 H       
  84 H84           -8.1737    -7.7481     0.7854 H       
  85 H85           -8.2234    -8.8090     2.2138 H       
  86 H86           -9.4565    -7.5429     2.0021 H       
  87 H87          -10.6946    -3.3053     5.2634 H       
  88 H88          -12.4862    -1.9203     4.9546 H       
  89 H89          -12.9350    -2.8294     3.4839 H       
  90 H90          -14.4993    -2.7733     5.7699 H       
  91 H91          -14.4892    -4.1508     4.6244 H       
  92 H92          -12.9029    -3.8357     7.2322 H       
  93 H93          -13.8900    -5.2331     6.6904 H       
  94 H94          -12.2860    -5.8545     5.0052 H       
  95 H95          -11.2182    -5.3106     6.3370 H       
  96 H96           -5.8355    -5.0429    -3.6094 H       
  97 H97           -8.7335    -6.5053    -3.4013 H       
  98 H98           -7.5356    -5.6380    -5.4634 H       
  99 H99           -7.2818    -7.3699    -6.0443 H       
 100 H100          -8.3453    -9.2807    -4.8093 H       
 101 H101          -9.6610    -8.4249    -2.2117 H       
 102 H102          -9.7478   -10.0934    -3.0530 H       
 103 H103           2.3209    -6.3641     5.0813 H       
 104 H104           3.3057    -5.6112     3.8040 H       
 105 H105           3.8826    -5.6130     5.4879 H       
 106 H106          -4.0247    -9.0247    -3.3220 H       
@<TRIPOS>BOND
   1    1    2 ar
   2    1   53 1
   3    1    6 ar
   4    2    3 ar
   5    2   58 1
   6    3    4 ar
   7    3   59 1
   8    4    5 ar
   9    4    7 ar
  10    5    6 ar
  11    5   10 ar
  12    6   11 1
  13    7    8 ar
  14    7   12 1
  15    8    9 ar
  16    8   60 1
  17    9   10 ar
  18    9   18 1
  19   12   13 1
  20   13   14 1
  21   13   17 1
  22   13   61 1
  23   14   15 1
  24   14   62 1
  25   14   63 1
  26   15   16 1
  27   15   29 am
  28   16   17 1
  29   16   45 1
  30   16   64 1
  31   17   65 1
  32   17   66 1
  33   18   19 2
  34   18   20 1
  35   19   22 1
  36   19   67 1
  37   20   21 2
  38   21   22 1
  39   21   23 1
  40   23   24 am
  41   23   68 1
  42   24   25 2
  43   24   26 1
  44   26   27 1
  45   26   28 1
  46   26   69 1
  47   27   70 1
  48   27   71 1
  49   27   72 1
  50   28   73 1
  51   28   74 1
  52   28   75 1
  53   29   30 2
  54   29   31 1
  55   31   32 1
  56   31   33 1
  57   31   76 1
  58   32   37 am
  59   32   77 1
  60   33   34 1
  61   33   35 1
  62   33   36 1
  63   34   78 1
  64   34   79 1
  65   34   80 1
  66   35   81 1
  67   35   82 1
  68   35   83 1
  69   36   84 1
  70   36   85 1
  71   36   86 1
  72   37   38 2
  73   37   39 1
  74   39   40 1
  75   40   41 1
  76   40   44 1
  77   40   87 1
  78   41   42 1
  79   41   88 1
  80   41   89 1
  81   42   43 1
  82   42   90 1
  83   42   91 1
  84   43   44 1
  85   43   92 1
  86   43   93 1
  87   44   94 1
  88   44   95 1
  89   45   46 2
  90   45   47 am
  91   47   48 1
  92   47   96 1
  93   48   55 1
  94   48   49 1
  95   48   50 1
  96   49   50 1
  97   49   51 1
  98   49   97 1
  99   50   98 1
 100   50   99 1
 101   51   52 2
 102   51  100 1
 103   52  101 1
 104   52  102 1
 105   53   54 1
 106   54  103 1
 107   54  104 1
 108   54  105 1
 109   55   56 2
 110   55   57 1
 111   57  106 1

#	End of record

