#	Name: ASD01918528
#	Creating user name:	WinNT
#	Creation time:	15. 06. 2019 20:11

#	Modifying user name:	WinNT
#	Modification time:	15. 06. 2019 20:11

#	Program:	/corina/corina34_cracker 3.40 0067  02.08.2006

@<TRIPOS>MOLECULE
ASD01918528
  31   33    0    0    0
SMALL
NO_CHARGES


@<TRIPOS>ATOM
   1 C1            -0.0167     1.3824     0.0096 C.ar    
   2 C2             0.0021    -0.0041     0.0020 C.ar    
   3 C3             1.2225    -0.6673    -0.0132 C.ar    
   4 C4             2.3836     0.0867    -0.0202 C.ar    
   5 C5             2.2890     1.4762    -0.0118 C.ar    
   6 N6             1.1040     2.0727     0.0026 N.ar    
   7 C7             3.5248     2.2969    -0.0187 C.ar    
   8 C8             3.4499     3.6894    -0.0105 C.ar    
   9 C9             4.6430     4.4136    -0.0176 C.ar    
  10 N10            5.7990     3.7522    -0.0317 N.ar    
  11 C11            5.8254     2.4354    -0.0391 C.ar    
  12 N12            4.7234     1.7149    -0.0273 N.ar    
  13 C13            4.6238     5.8968    -0.0099 C.ar    
  14 C14            5.8206     6.6079    -0.0170 C.ar    
  15 C15            3.4090     6.5767    -0.0013 C.ar    
  16 C16            3.3896     7.9717     0.0050 C.ar    
  17 C17            4.5878     8.6850     0.0032 C.ar    
  18 C18            5.8039     8.0030    -0.0103 C.ar    
  19 C19            2.1399     8.6707     0.0128 C.1     
  20 C20            7.0352     8.7341    -0.0117 C.1     
  21 N21            8.0119     9.3142    -0.0128 N.1     
  22 N22            1.1484     9.2253     0.0191 N.1     
  23 F23           -1.1544    -0.7025     0.0097 F       
  24 H24           -0.9631     1.9026     0.0169 H       
  25 H25            1.2647    -1.7465    -0.0190 H       
  26 H26            3.3496    -0.3961    -0.0316 H       
  27 H27            2.4949     4.1936     0.0006 H       
  28 H28            6.7803     1.9310    -0.0506 H       
  29 H29            6.7624     6.0794    -0.0274 H       
  30 H30            2.4811     6.0240     0.0001 H       
  31 H31            4.5738     9.7649     0.0078 H       
@<TRIPOS>BOND
   1    1    2 ar
   2    1    6 ar
   3    1   24 1
   4    2    3 ar
   5    2   23 1
   6    3    4 ar
   7    3   25 1
   8    4    5 ar
   9    4   26 1
  10    5    6 ar
  11    5    7 1
  12    7    8 ar
  13    7   12 ar
  14    8    9 ar
  15    8   27 1
  16    9   10 ar
  17    9   13 1
  18   10   11 ar
  19   11   12 ar
  20   11   28 1
  21   13   14 ar
  22   13   15 ar
  23   14   18 ar
  24   14   29 1
  25   15   16 ar
  26   15   30 1
  27   16   17 ar
  28   16   19 1
  29   17   18 ar
  30   17   31 1
  31   18   20 1
  32   19   22 3
  33   20   21 3

#	End of record

