#	Name: ASD01811526
#	Creating user name:	WinNT
#	Creation time:	15. 06. 2019 19:26

#	Modifying user name:	WinNT
#	Modification time:	15. 06. 2019 19:26

#	Program:	/corina/corina34_cracker 3.40 0067  02.08.2006

@<TRIPOS>MOLECULE
ASD01811526
  44   46    0    0    0
SMALL
NO_CHARGES


@<TRIPOS>ATOM
   1 C1            -0.1487     1.4578    -0.2462 C.2     
   2 C2            -0.0607    -0.0117    -0.1219 C.ar    
   3 C3             1.1852    -0.6434    -0.1461 C.ar    
   4 C4             1.2673    -2.0160    -0.0300 C.ar    
   5 C5             0.1201    -2.7732     0.1105 C.ar    
   6 C6            -1.1291    -2.1549     0.1356 C.ar    
   7 C7            -1.2204    -0.7715     0.0255 C.ar    
   8 O8             0.8645     2.1274    -0.2665 O.2     
   9 O9            -1.3525     2.0547    -0.3427 O.3     
  10 C10            2.4410     0.1753    -0.2996 C.3     
  11 N11           -3.8977    -4.5269     0.0516 N.pl3   
  12 N12           -2.6512    -4.0635    -0.3884 N.2     
  13 C13           -2.3596    -2.9714     0.2858 C.2     
  14 C14           -3.4211    -2.7144     1.1751 C.2     
  15 C15           -4.3461    -3.6845     1.0070 C.2     
  16 C16           -5.6492    -3.8052     1.7543 C.3     
  17 C17           -5.4124    -4.5356     3.0777 C.3     
  18 C18            0.2196    -4.2716     0.2366 C.3     
  19 C19            0.8018    -4.9575    -1.0106 C.3     
  20 C20            1.5715    -5.8778    -0.0486 C.3     
  21 C21            1.4759    -4.7447     0.9867 C.3     
  22 C22           -1.3631     3.5018    -0.4621 C.3     
  23 H23            2.2324    -2.5005    -0.0495 H       
  24 H24           -2.1859    -0.2882     0.0493 H       
  25 H25            2.7454     0.5597     0.6739 H       
  26 H26            3.2349    -0.4502    -0.7076 H       
  27 H27            2.2511     1.0086    -0.9761 H       
  28 H28           -4.3604    -5.3140    -0.2760 H       
  29 H29           -3.4841    -1.8888     1.8685 H       
  30 H30           -6.0468    -2.8103     1.9544 H       
  31 H31           -6.3628    -4.3672     1.1517 H       
  32 H32           -5.0148    -5.5306     2.8775 H       
  33 H33           -4.6988    -3.9736     3.6802 H       
  34 H34           -6.3549    -4.6229     3.6181 H       
  35 H35           -0.7028    -4.7283     0.5956 H       
  36 H36            0.0558    -5.4788    -1.6105 H       
  37 H37            1.4464    -4.3094    -1.6044 H       
  38 H38            1.0196    -6.7745     0.2332 H       
  39 H39            2.5911    -6.0906    -0.3701 H       
  40 H40            2.3048    -4.0385     0.9389 H       
  41 H41            1.2742    -5.0943     1.9992 H       
  42 H42           -2.3926     3.8531    -0.5315 H       
  43 H43           -0.8872     3.9421     0.4141 H       
  44 H44           -0.8174     3.7964    -1.3585 H       
@<TRIPOS>BOND
   1    1    2 1
   2    1    8 2
   3    1    9 1
   4    2    3 ar
   5    2    7 ar
   6    3    4 ar
   7    3   10 1
   8    4    5 ar
   9    4   23 1
  10    5    6 ar
  11    5   18 1
  12    6    7 ar
  13    6   13 1
  14    7   24 1
  15    9   22 1
  16   10   25 1
  17   10   26 1
  18   10   27 1
  19   11   12 1
  20   11   15 1
  21   11   28 1
  22   12   13 2
  23   13   14 1
  24   14   15 2
  25   14   29 1
  26   15   16 1
  27   16   17 1
  28   16   30 1
  29   16   31 1
  30   17   32 1
  31   17   33 1
  32   17   34 1
  33   18   19 1
  34   18   21 1
  35   18   35 1
  36   19   20 1
  37   19   36 1
  38   19   37 1
  39   20   21 1
  40   20   38 1
  41   20   39 1
  42   21   40 1
  43   21   41 1
  44   22   42 1
  45   22   43 1
  46   22   44 1

#	End of record

