#	Name: ASD01900396
#	Creating user name:	WinNT
#	Creation time:	15. 06. 2019 19:51

#	Modifying user name:	WinNT
#	Modification time:	15. 06. 2019 19:51

#	Program:	/corina/corina34_cracker 3.40 0067  02.08.2006

@<TRIPOS>MOLECULE
ASD01900396
  41   43    0    0    0
SMALL
NO_CHARGES


@<TRIPOS>ATOM
   1 C1            -0.0170     1.4038     0.0098 C.ar    
   2 C2             0.0021    -0.0041     0.0020 C.ar    
   3 C3             1.2302    -0.6643    -0.0128 C.ar    
   4 C4             2.3817     0.0979    -0.0193 C.ar    
   5 C5             2.2883     1.4835    -0.0110 C.ar    
   6 N6             1.1233     2.0902     0.0026 N.ar    
   7 N7            -2.1422     0.6956     0.0262 N.2     
   8 N8            -1.3022    -0.4227     0.0122 N.pl3   
   9 C9            -1.4296     1.7905     0.0312 C.2     
  10 N10           -1.9266     3.0975     0.0450 N.pl3   
  11 C11           -3.3727     3.3312     0.0660 C.3     
  12 C12           -3.6591     4.6999     0.6869 C.3     
  13 C13           -5.1694     4.9439     0.7090 C.3     
  14 C14           -5.7126     4.9088    -0.7209 C.3     
  15 C15           -5.4261     3.5401    -1.3418 C.3     
  16 C16           -3.9159     3.2961    -1.3638 C.3     
  17 C17           -7.2228     5.1528    -0.6989 C.3     
  18 C18           -7.5093     6.5215    -0.0780 C.3     
  19 C19           -7.7660     5.1177    -2.1288 C.3     
  20 H20            1.2794    -1.7432    -0.0187 H       
  21 H21            3.3497    -0.3810    -0.0305 H       
  22 H22            3.1923     2.0745    -0.0158 H       
  23 H23           -1.5963    -1.3470     0.0096 H       
  24 H24           -1.3138     3.8494     0.0405 H       
  25 H25           -3.8576     2.5550     0.6581 H       
  26 H26           -3.2721     4.7249     1.7056 H       
  27 H27           -3.1743     5.4761     0.0949 H       
  28 H28           -5.6543     4.1677     1.3010 H       
  29 H29           -5.3735     5.9190     1.1513 H       
  30 H30           -5.2277     5.6850    -1.3130 H       
  31 H31           -5.9110     2.7639    -0.7498 H       
  32 H32           -5.8131     3.5151    -2.3605 H       
  33 H33           -3.4310     4.0723    -1.9559 H       
  34 H34           -3.7118     2.3210    -1.8062 H       
  35 H35           -7.7077     4.3766    -0.1069 H       
  36 H36           -7.1223     6.5466     0.9407 H       
  37 H37           -7.0244     7.2977    -0.6701 H       
  38 H38           -8.5852     6.6954    -0.0623 H       
  39 H39           -7.5620     4.1426    -2.5711 H       
  40 H40           -8.8420     5.2915    -2.1131 H       
  41 H41           -7.2812     5.8939    -2.7208 H       
@<TRIPOS>BOND
   1    1    2 ar
   2    1    6 ar
   3    1    9 1
   4    2    3 ar
   5    2    8 1
   6    3    4 ar
   7    3   20 1
   8    4    5 ar
   9    4   21 1
  10    5    6 ar
  11    5   22 1
  12    7    8 1
  13    7    9 2
  14    8   23 1
  15    9   10 1
  16   10   11 1
  17   10   24 1
  18   11   12 1
  19   11   16 1
  20   11   25 1
  21   12   13 1
  22   12   26 1
  23   12   27 1
  24   13   14 1
  25   13   28 1
  26   13   29 1
  27   14   15 1
  28   14   17 1
  29   14   30 1
  30   15   16 1
  31   15   31 1
  32   15   32 1
  33   16   33 1
  34   16   34 1
  35   17   18 1
  36   17   19 1
  37   17   35 1
  38   18   36 1
  39   18   37 1
  40   18   38 1
  41   19   39 1
  42   19   40 1
  43   19   41 1

#	End of record

