#	Name: ASD01840280
#	Creating user name:	WinNT
#	Creation time:	15. 06. 2019 19:37

#	Modifying user name:	WinNT
#	Modification time:	15. 06. 2019 19:37

#	Program:	/corina/corina34_cracker 3.40 0067  02.08.2006

@<TRIPOS>MOLECULE
ASD01840280
  32   34    0    0    0
SMALL
NO_CHARGES


@<TRIPOS>ATOM
   1 C1            -0.0935     1.5008     0.0101 C.3     
   2 C2            -0.0333    -0.0050     0.0019 C.ar    
   3 N3             0.0047    -0.6436    -1.1442 N.ar    
   4 C4             0.0585    -1.9749    -1.2140 C.ar    
   5 S5             0.1164    -3.0400    -2.6152 S.3     
   6 C6             0.1620    -4.4662    -1.5943 C.2     
   7 C7             0.2232    -5.8468    -2.0910 C.2     
   8 O8             0.2519    -6.7753    -1.3053 O.2     
   9 N9             0.2475    -6.0853    -3.4173 N.am    
  10 C10            0.3085    -7.4626    -3.9129 C.3     
  11 C11           -0.9997    -7.9474    -4.5656 C.3     
  12 O12           -0.4281    -7.4697    -5.8000 O.3     
  13 C13            0.9254    -7.5912    -5.3184 C.3     
  14 C14            0.1341    -4.1237    -0.3013 C.2     
  15 Br15           0.1695    -5.4096     1.0848 Br      
  16 C16            0.0764    -2.7447    -0.0433 C.ar    
  17 C17            0.0359    -2.0700     1.2014 C.ar    
  18 C18            0.0530    -2.8432     2.4948 C.3     
  19 C19           -0.0133    -0.6947     1.2073 C.ar    
  20 Cl20          -0.0567     0.1718     2.7109 Cl      
  21 H21            0.9188     1.9048     0.0185 H       
  22 H22           -0.6160     1.8484    -0.8811 H       
  23 H23           -0.6267     1.8383     0.8988 H       
  24 H24            0.2246    -5.3451    -4.0437 H       
  25 H25            0.7238    -8.1593    -3.1846 H       
  26 H26           -1.1354    -9.0284    -4.5317 H       
  27 H27           -1.8832    -7.3948    -4.2458 H       
  28 H28            1.5687    -6.7561    -5.5957 H       
  29 H29            1.3776    -8.5634    -5.5144 H       
  30 H30            1.0816    -3.0922     2.7556 H       
  31 H31           -0.3859    -2.2363     3.2867 H       
  32 H32           -0.5243    -3.7603     2.3775 H       
@<TRIPOS>BOND
   1    1    2 1
   2    1   21 1
   3    1   22 1
   4    1   23 1
   5    2   19 ar
   6    2    3 ar
   7    3    4 ar
   8    4   16 ar
   9    4    5 1
  10    5    6 1
  11    6    7 1
  12    6   14 2
  13    7    8 2
  14    7    9 am
  15    9   10 1
  16    9   24 1
  17   10   13 1
  18   10   11 1
  19   10   25 1
  20   11   12 1
  21   11   26 1
  22   11   27 1
  23   12   13 1
  24   13   28 1
  25   13   29 1
  26   14   15 1
  27   14   16 1
  28   16   17 ar
  29   17   18 1
  30   17   19 ar
  31   18   30 1
  32   18   31 1
  33   18   32 1
  34   19   20 1

#	End of record

