#	Name: ASD01230585
#	Creating user name:	WinNT
#	Creation time:	15. 06. 2019 19:14

#	Modifying user name:	WinNT
#	Modification time:	15. 06. 2019 19:14

#	Program:	/corina/corina34_cracker 3.40 0067  02.08.2006

@<TRIPOS>MOLECULE
ASD01230585
  45   48    0    0    0
SMALL
NO_CHARGES


@<TRIPOS>ATOM
   1 C1            -0.0252     1.5298     0.0137 C.3     
   2 C2            -0.0009    -0.0002     0.0106 C.3     
   3 O3            -1.3199    -0.4944    -0.2304 O.3     
   4 C4            -1.6054    -1.7409     0.2298 C.ar    
   5 C5            -2.8984    -2.2366     0.1301 C.ar    
   6 C6            -0.6020    -2.5176     0.7934 C.ar    
   7 C7            -0.8879    -3.7827     1.2615 C.ar    
   8 C8            -2.1874    -4.2820     1.1681 C.ar    
   9 C9            -3.1919    -3.5007     0.5959 C.ar    
  10 C10           -2.4984    -5.6401     1.6695 C.2     
  11 C11           -2.9262    -6.7033     0.7356 C.2     
  12 C12           -2.3874    -5.9309     3.0117 C.2     
  13 C13           -2.6915    -7.2258     3.4538 C.2     
  14 C14           -3.0963    -8.1707     2.5879 C.2     
  15 N15           -3.2368    -7.9327     1.2431 N.pl3   
  16 C16           -3.7432    -9.0465     0.4369 C.3     
  17 C17           -3.0806    -9.0568    -0.9436 C.3     
  18 S18           -3.4165    -7.4407    -1.7119 S.o2    
  19 N19           -2.9609    -6.3725    -0.5325 N.am    
  20 O20           -2.5187    -7.1964    -2.7858 O.2     
  21 O21           -4.8147    -7.2317    -1.8563 O.2     
  22 C22            1.4220     2.0381     0.0121 C.3     
  23 C23            2.0608     1.6755    -1.3303 C.3     
  24 C24            1.8211     0.2274    -1.6425 C.2     
  25 C25            0.9214    -0.5003    -1.0623 C.2     
  26 H26           -0.5410     1.8899    -0.8765 H       
  27 H27           -0.5378     1.8863     0.9072 H       
  28 H28            0.3476    -0.3580     0.9795 H       
  29 H29           -3.6755    -1.6311    -0.3126 H       
  30 H30            0.4037    -2.1305     0.8651 H       
  31 H31           -0.1068    -4.3864     1.6994 H       
  32 H32           -4.1989    -3.8840     0.5219 H       
  33 H33           -2.0705    -5.1727     3.7126 H       
  34 H34           -2.5991    -7.4673     4.5024 H       
  35 H35           -3.3160    -9.1587     2.9647 H       
  36 H36           -3.5276    -9.9859     0.9460 H       
  37 H37           -4.8216    -8.9425     0.3173 H       
  38 H38           -2.0055    -9.2018    -0.8386 H       
  39 H39           -3.5059    -9.8536    -1.5538 H       
  40 H40            1.4305     3.1203     0.1415 H       
  41 H41            1.9774     1.5649     0.8219 H       
  42 H42            1.6242     2.2916    -2.1163 H       
  43 H43            3.1337     1.8619    -1.2820 H       
  44 H44            2.4374    -0.2364    -2.3984 H       
  45 H45            0.8291    -1.5316    -1.3693 H       
@<TRIPOS>BOND
   1    1    2 1
   2    1   22 1
   3    1   26 1
   4    1   27 1
   5    2    3 1
   6    2   25 1
   7    2   28 1
   8    3    4 1
   9    4    5 ar
  10    4    6 ar
  11    5    9 ar
  12    5   29 1
  13    6    7 ar
  14    6   30 1
  15    7    8 ar
  16    7   31 1
  17    8    9 ar
  18    8   10 1
  19    9   32 1
  20   10   11 1
  21   10   12 2
  22   11   15 1
  23   11   19 2
  24   12   13 1
  25   12   33 1
  26   13   14 2
  27   13   34 1
  28   14   15 1
  29   14   35 1
  30   15   16 1
  31   16   17 1
  32   16   36 1
  33   16   37 1
  34   17   18 1
  35   17   38 1
  36   17   39 1
  37   18   19 am
  38   18   20 2
  39   18   21 2
  40   22   23 1
  41   22   40 1
  42   22   41 1
  43   23   24 1
  44   23   42 1
  45   23   43 1
  46   24   25 2
  47   24   44 1
  48   25   45 1

#	End of record

