#	Name: ASD02030348
#	Creating user name:	WinNT
#	Creation time:	15. 06. 2019 20:15

#	Modifying user name:	WinNT
#	Modification time:	15. 06. 2019 20:15

#	Program:	/corina/corina34_cracker 3.40 0067  02.08.2006

@<TRIPOS>MOLECULE
ASD02030348
  37   39    0    0    0
SMALL
NO_CHARGES


@<TRIPOS>ATOM
   1 N1            -0.1552     1.4579     0.2497 N.am    
   2 C2            -0.1292    -0.0116     0.1949 C.3     
   3 C3            -1.2554    -0.5518     1.0827 C.3     
   4 N4            -2.5281     0.0624     0.6816 N.3     
   5 C5            -2.5069     1.5165     0.8893 C.3     
   6 C6            -1.4334     2.1412    -0.0003 C.3     
   7 C7             0.9616     2.1596     0.5273 C.2     
   8 O8             0.9489     3.3733     0.4611 O.2     
   9 C9             2.2019     1.4532     0.9122 C.2     
  10 N10            3.3854     2.0029     1.0789 N.2     
  11 N11            2.3179     0.1355     1.1595 N.2     
  12 C12            3.5693    -0.0939     1.4663 C.2     
  13 N13            4.2249     1.0837     1.4117 N.pl3   
  14 C14            5.5885     1.2750     1.6722 C.ar    
  15 C15            6.1429     2.5447     1.5807 C.ar    
  16 C16            7.4870     2.7301     1.8384 C.ar    
  17 C17            8.2807     1.6527     2.1869 C.ar    
  18 C18            7.7317     0.3868     2.2784 C.ar    
  19 C19            6.3869     0.1960     2.0279 C.ar    
  20 C20           -1.2961     3.6293     0.3277 C.3     
  21 H21           -0.2821    -0.3424    -0.8324 H       
  22 H22            0.8313    -0.3748     0.5604 H       
  23 H23           -1.3216    -1.6338     0.9681 H       
  24 H24           -1.0462    -0.3080     2.1242 H       
  25 H25           -2.7524    -0.1628    -0.2760 H       
  26 H26           -3.4808     1.9345     0.6346 H       
  27 H27           -2.2803     1.7314     1.9336 H       
  28 H28           -1.7087     2.0181    -1.0478 H       
  29 H29            3.9987    -1.0519     1.7200 H       
  30 H30            5.5237     3.3865     1.3078 H       
  31 H31            7.9188     3.7175     1.7674 H       
  32 H32            9.3316     1.8001     2.3876 H       
  33 H33            8.3542    -0.4528     2.5501 H       
  34 H34            5.9586    -0.7928     2.0995 H       
  35 H35           -0.8882     3.7438     1.3320 H       
  36 H36           -0.6264     4.0997    -0.3923 H       
  37 H37           -2.2758     4.1044     0.2770 H       
@<TRIPOS>BOND
   1    1    2 1
   2    1    7 am
   3    1    6 1
   4    2    3 1
   5    2   21 1
   6    2   22 1
   7    3    4 1
   8    3   23 1
   9    3   24 1
  10    4    5 1
  11    4   25 1
  12    5    6 1
  13    5   26 1
  14    5   27 1
  15    6   20 1
  16    6   28 1
  17    7    8 2
  18    7    9 1
  19    9   10 2
  20    9   11 1
  21   10   13 1
  22   11   12 2
  23   12   13 1
  24   12   29 1
  25   13   14 1
  26   14   15 ar
  27   14   19 ar
  28   15   16 ar
  29   15   30 1
  30   16   17 ar
  31   16   31 1
  32   17   18 ar
  33   17   32 1
  34   18   19 ar
  35   18   33 1
  36   19   34 1
  37   20   35 1
  38   20   36 1
  39   20   37 1

#	End of record

