#	Name: ASD01350053
#	Creating user name:	WinNT
#	Creation time:	15. 06. 2019 19:16

#	Modifying user name:	WinNT
#	Modification time:	15. 06. 2019 19:16

#	Program:	/corina/corina34_cracker 3.40 0067  02.08.2006

@<TRIPOS>MOLECULE
ASD01350053
  39   41    0    0    0
SMALL
NO_CHARGES


@<TRIPOS>ATOM
   1 C1            -0.0178     1.4648     0.0101 C.3     
   2 N2             0.0021    -0.0041     0.0020 N.3     
   3 C3             0.7062    -0.5275     1.1802 C.3     
   4 C4             2.1851    -0.1430     1.1032 C.3     
   5 N5             2.8872    -0.6650     2.2782 N.pl3   
   6 C6             4.2590    -0.4387     2.4309 C.ar    
   7 C7             4.9564     0.2822     1.4666 C.ar    
   8 C8             6.3099     0.5086     1.6049 C.ar    
   9 C9             6.9907     0.0171     2.7102 C.ar    
  10 C10            6.2875    -0.7045     3.6880 C.ar    
  11 C11            4.9217    -0.9278     3.5452 C.ar    
  12 C12            7.0241    -1.2009     4.8671 C.ar    
  13 C13            6.4906    -2.1177     5.7595 C.ar    
  14 C14            7.2450    -2.5307     6.8411 C.ar    
  15 C15            8.5254    -2.0382     7.0414 C.ar    
  16 C16            9.0744    -1.1249     6.1629 C.ar    
  17 C17            8.3308    -0.7000     5.0697 C.ar    
  18 C18            8.8430     0.2673     4.0821 C.2     
  19 O19            9.7007     1.0760     4.3800 O.2     
  20 O20            8.3259     0.2243     2.8330 O.3     
  21 C21           -1.3597    -0.5486    -0.0825 C.3     
  22 H22            1.0047     1.8421     0.0024 H       
  23 H23           -0.5450     1.8259    -0.8730 H       
  24 H24           -0.5280     1.8163     0.9069 H       
  25 H25            0.2673    -0.1040     2.0837 H       
  26 H26            0.6139    -1.6133     1.2060 H       
  27 H27            2.6240    -0.5665     0.1998 H       
  28 H28            2.2773     0.9428     1.0774 H       
  29 H29            2.4008    -1.1676     2.9503 H       
  30 H30            4.4341     0.6671     0.6032 H       
  31 H31            6.8417     1.0697     0.8508 H       
  32 H32            4.3822    -1.4875     4.2950 H       
  33 H33            5.4937    -2.5058     5.6108 H       
  34 H34            6.8324    -3.2448     7.5384 H       
  35 H35            9.0992    -2.3719     7.8934 H       
  36 H36           10.0723    -0.7448     6.3245 H       
  37 H37           -1.8584    -0.1448    -0.9636 H       
  38 H38           -1.3126    -1.6350    -0.1575 H       
  39 H39           -1.9185    -0.2700     0.8110 H       
@<TRIPOS>BOND
   1    1    2 1
   2    1   22 1
   3    1   23 1
   4    1   24 1
   5    2    3 1
   6    2   21 1
   7    3    4 1
   8    3   25 1
   9    3   26 1
  10    4    5 1
  11    4   27 1
  12    4   28 1
  13    5    6 1
  14    5   29 1
  15    6    7 ar
  16    6   11 ar
  17    7    8 ar
  18    7   30 1
  19    8    9 ar
  20    8   31 1
  21    9   10 ar
  22    9   20 1
  23   10   11 ar
  24   10   12 1
  25   11   32 1
  26   12   13 ar
  27   12   17 ar
  28   13   14 ar
  29   13   33 1
  30   14   15 ar
  31   14   34 1
  32   15   16 ar
  33   15   35 1
  34   16   17 ar
  35   16   36 1
  36   17   18 1
  37   18   19 2
  38   18   20 1
  39   21   37 1
  40   21   38 1
  41   21   39 1

#	End of record

