#	Name: ASD00370006
#	Creating user name:	WinNT
#	Creation time:	15. 06. 2019 18:35

#	Modifying user name:	WinNT
#	Modification time:	15. 06. 2019 18:35

#	Program:	/corina/corina34_cracker 3.40 0067  02.08.2006

@<TRIPOS>MOLECULE
ASD00370006
  39   41    0    0    0
SMALL
NO_CHARGES


@<TRIPOS>ATOM
   1 O1             0.0808     1.1933     0.0720 O.3     
   2 C2             0.3677    -0.2187     0.1709 C.3     
   3 C3             1.5777    -0.3095     1.1269 C.3     
   4 C4             2.2525     1.0756     1.0111 C.3     
   5 C5             1.3704     1.8394    -0.0011 C.3     
   6 N6             1.9245     1.7205    -1.3521 N.pl3   
   7 C7             1.5375     0.8279    -2.3069 C.2     
   8 N8             2.2401     1.0016    -3.3885 N.2     
   9 C9             3.1200     2.0137    -3.1970 C.ar    
  10 C10            2.9240     2.4910    -1.8903 C.ar    
  11 C11            4.1052     2.6298    -3.9876 C.ar    
  12 N12            4.8066     3.6282    -3.4611 N.ar    
  13 C13            4.5899     4.0387    -2.2247 C.ar    
  14 N14            3.6734     3.4970    -1.4508 N.ar    
  15 N15            4.3397     2.2063    -5.2840 N.pl3   
  16 O16            1.1405    -0.5431     2.4672 O.3     
  17 O17            2.2526     1.7398     2.2764 O.3     
  18 C18           -0.8317    -0.9661     0.7572 C.3     
  19 O19           -1.9254    -0.9061    -0.1606 O.3     
  20 P20           -3.3538    -1.5890     0.1317 P.3     
  21 O21           -4.2969    -1.4362    -1.1642 O.3     
  22 S22           -5.6799    -2.0497    -0.9991 S.o2    
  23 O23           -3.1529    -3.0877     0.4487 O.co2   
  24 O24           -4.0204    -0.8921     1.3388 O.co2   
  25 O25           -6.2555    -2.1513    -2.3312 O.co2   
  26 O26           -5.4894    -3.3548    -0.3857 O.co2   
  27 O27           -6.4384    -1.1500    -0.1439 O.co2   
  28 H28            0.6262    -0.6228    -0.8079 H       
  29 H29            2.2609    -1.0954     0.8046 H       
  30 H30            3.2693     0.9745     0.6316 H       
  31 H31            1.2862     2.8880     0.2844 H       
  32 H32            0.7625     0.0859    -2.1838 H       
  33 H33            5.1828     4.8536    -1.8362 H       
  34 H34            3.8213     1.4762    -5.6570 H       
  35 H35            5.0225     2.6396    -5.8198 H       
  36 H36            1.8600    -0.6088     3.1098 H       
  37 H37            2.7423     1.2716     2.9663 H       
  38 H38           -0.5608    -2.0073     0.9321 H       
  39 H39           -1.1228    -0.5031     1.7001 H       
@<TRIPOS>BOND
   1    1    2 1
   2    1    5 1
   3    2    3 1
   4    2   18 1
   5    2   28 1
   6    3    4 1
   7    3   16 1
   8    3   29 1
   9    4    5 1
  10    4   17 1
  11    4   30 1
  12    5    6 1
  13    5   31 1
  14    6    7 1
  15    6   10 1
  16    7    8 2
  17    7   32 1
  18    8    9 1
  19    9   10 ar
  20    9   11 ar
  21   10   14 ar
  22   11   12 ar
  23   11   15 1
  24   12   13 ar
  25   13   14 ar
  26   13   33 1
  27   15   34 1
  28   15   35 1
  29   16   36 1
  30   17   37 1
  31   18   19 1
  32   18   38 1
  33   18   39 1
  34   19   20 1
  35   20   21 1
  36   20   23 ar
  37   20   24 ar
  38   21   22 1
  39   22   25 ar
  40   22   26 ar
  41   22   27 ar

#	End of record

