#	Name: ASD08150900
#	Creating user name:	WinNT
#	Creation time:	15. 06. 2019 21:16

#	Modifying user name:	WinNT
#	Modification time:	15. 06. 2019 21:16

#	Program:	/corina/corina34_cracker 3.40 0067  02.08.2006

@<TRIPOS>MOLECULE
ASD08150900
  49   53    0    0    0
SMALL
NO_CHARGES


@<TRIPOS>ATOM
   1 N1            -0.2146     1.2405    -0.0477 N.3     
   2 C2            -0.3772    -0.2190    -0.1795 C.3     
   3 C3             1.0353    -0.8402    -0.1580 C.3     
   4 C4             1.8839     0.2459     0.5541 C.3     
   5 C5             1.2294     1.5482     0.0296 C.3     
   6 O6             1.0407    -2.0572     0.5908 O.3     
   7 N7             0.5986     0.7911    -2.6935 N.ar    
   8 C8             1.0022     0.5577    -3.9187 C.ar    
   9 C9             0.4326     1.2046    -5.0134 C.ar    
  10 C10           -0.5738     2.1081    -4.8231 C.ar    
  11 C11           -1.0044     2.3554    -3.5058 C.ar    
  12 C12           -2.0348     3.2712    -3.2344 C.ar    
  13 C13           -2.4293     3.4881    -1.9480 C.ar    
  14 C14           -1.8257     2.8138    -0.8908 C.ar    
  15 C15           -0.8117     1.9087    -1.1171 C.ar    
  16 C16           -0.3810     1.6628    -2.4391 C.ar    
  17 C17           -2.2861     3.0778     0.5197 C.3     
  18 C18           -1.4318     4.1876     1.1357 C.3     
  19 N19           -3.6907     3.4939     0.5051 N.pl3   
  20 N20           -6.6585     4.2660     0.7214 N.2     
  21 C21           -7.8470     4.3896     1.2369 C.2     
  22 N22           -7.8690     3.8536     2.4902 N.pl3   
  23 C23           -6.6115     3.3726     2.7540 C.ar    
  24 N24           -6.0384     2.7592     3.7842 N.ar    
  25 C25           -4.7701     2.4096     3.7360 C.ar    
  26 N26           -4.0097     2.6446     2.6824 N.ar    
  27 C27           -4.4953     3.2526     1.6049 C.ar    
  28 C28           -5.8446     3.6447     1.6084 C.ar    
  29 Cl29          -2.8037     4.1255    -4.5354 Cl      
  30 H30           -0.9641    -0.6036     0.6546 H       
  31 H31           -0.8711    -0.4534    -1.1225 H       
  32 H32            1.3976    -1.0088    -1.1721 H       
  33 H33            1.7872     0.1691     1.6371 H       
  34 H34            2.9293     0.1851     0.2517 H       
  35 H35            1.6178     1.7970    -0.9580 H       
  36 H36            1.4059     2.3685     0.7254 H       
  37 H37            1.9053    -2.4879     0.6351 H       
  38 H38            1.7973    -0.1543    -4.0839 H       
  39 H39            0.7868     0.9921    -6.0113 H       
  40 H40           -1.0265     2.6190    -5.6600 H       
  41 H41           -3.2220     4.1933    -1.7461 H       
  42 H42           -2.1826     2.1686     1.1118 H       
  43 H43           -1.5353     5.0969     0.5435 H       
  44 H44           -1.7648     4.3786     2.1558 H       
  45 H45           -0.3867     3.8781     1.1465 H       
  46 H46           -4.0567     3.9385    -0.2755 H       
  47 H47           -8.6912     4.8495     0.7447 H       
  48 H48           -8.6335     3.8190     3.0862 H       
  49 H49           -4.3352     1.9126     4.5905 H       
@<TRIPOS>BOND
   1    1    2 1
   2    1    5 1
   3    1   15 1
   4    2    3 1
   5    2   30 1
   6    2   31 1
   7    3    4 1
   8    3    6 1
   9    3   32 1
  10    4    5 1
  11    4   33 1
  12    4   34 1
  13    5   35 1
  14    5   36 1
  15    6   37 1
  16    7    8 ar
  17    7   16 ar
  18    8    9 ar
  19    8   38 1
  20    9   10 ar
  21    9   39 1
  22   10   11 ar
  23   10   40 1
  24   11   12 ar
  25   11   16 ar
  26   12   13 ar
  27   12   29 1
  28   13   14 ar
  29   13   41 1
  30   14   15 ar
  31   14   17 1
  32   15   16 ar
  33   17   18 1
  34   17   19 1
  35   17   42 1
  36   18   43 1
  37   18   44 1
  38   18   45 1
  39   19   27 1
  40   19   46 1
  41   20   21 2
  42   20   28 1
  43   21   22 1
  44   21   47 1
  45   22   23 1
  46   22   48 1
  47   23   24 ar
  48   23   28 ar
  49   24   25 ar
  50   25   26 ar
  51   25   49 1
  52   26   27 ar
  53   27   28 ar

#	End of record

