#	Name: ASD02320067
#	Creating user name:	WinNT
#	Creation time:	15. 06. 2019 20:20

#	Modifying user name:	WinNT
#	Modification time:	15. 06. 2019 20:20

#	Program:	/corina/corina34_cracker 3.40 0067  02.08.2006

@<TRIPOS>MOLECULE
ASD02320067
  88   85    0    0    0
SMALL
NO_CHARGES


@<TRIPOS>ATOM
   1 C1            -0.0164     1.3560     0.0095 C.2     
   2 C2             0.0021    -0.0041     0.0020 C.2     
   3 O3             1.1438    -0.7103    -0.0122 O.3     
   4 C4             2.3572    -0.1189    -0.0208 C.ar    
   5 C5             1.2051     2.0703     0.0017 C.2     
   6 C6            -1.2815    -0.7309     0.0104 C.ar    
   7 C7            -1.2955    -2.1285     0.0030 C.ar    
   8 C8            -2.4962    -2.8031     0.0113 C.ar    
   9 C9            -3.6926    -2.0962     0.0270 C.ar    
  10 C10           -3.6833    -0.7066     0.0344 C.ar    
  11 C11           -2.4871    -0.0240     0.0315 C.ar    
  12 C12            3.5166    -0.8781    -0.0361 C.ar    
  13 C13            4.7548    -0.2541    -0.0452 C.ar    
  14 C14            4.8494     1.1330    -0.0384 C.ar    
  15 C15            3.7038     1.9073    -0.0232 C.ar    
  16 C16            2.4501     1.2838    -0.0145 C.ar    
  17 O17           -4.8740    -2.7652     0.0347 O.3     
  18 S18           -5.3991    -3.0781     1.4285 S.o2    
  19 O19           -6.4411    -4.0806     1.2689 O.co2   
  20 O20           -4.2717    -3.5804     2.1985 O.co2   
  21 O21           -5.9187    -1.8322     1.9705 O.co2   
  22 O22            1.2260     3.2906     0.0081 O.2     
  23 O23            3.7939     3.2614    -0.0161 O.3     
  24 O24            5.8857    -1.0049    -0.0602 O.3     
  25 S25            6.3877    -1.3401    -1.4574 S.o2    
  26 O26            7.3559    -2.4154    -1.3085 O.co2   
  27 O27            5.2277    -1.7533    -2.2319 O.co2   
  28 O28            6.9943    -0.1287    -1.9870 O.co2   
  29 O29            5.6591     8.0004     2.1435 O.3     
  30 C30            5.5734     9.3419     2.3300 C.ar    
  31 C31            5.5563     9.8744     3.6248 C.ar    
  32 C32            5.5082    10.1936     1.2424 C.ar    
  33 C33            5.4214    11.5677     1.4357 C.ar    
  34 C34            5.3987    12.1014     2.7153 C.ar    
  35 C35            5.4681    11.2641     3.8174 C.ar    
  36 C36            5.6050     9.6293     6.0798 C.2     
  37 C37            5.6290     9.0040     4.8106 C.2     
  38 O38            5.4514    11.7675     5.0699 O.3     
  39 C39            5.5165    10.9843     6.1583 C.2     
  40 C40            5.4923    11.6176     7.4903 C.ar    
  41 C41            5.4019    13.0077     7.6039 C.ar    
  42 C42            5.3791    13.5948     8.8495 C.ar    
  43 C43            5.4459    12.8071     9.9925 C.ar    
  44 C44            5.5359    11.4245     9.8842 C.ar    
  45 C45            5.5539    10.8288     8.6426 C.ar    
  46 O46            5.7065     7.7908     4.7029 O.2     
  47 O47            5.3588    12.3950     0.3612 O.3     
  48 O48            5.4236    13.3899    11.2184 O.3     
  49 S49            4.0261    13.5645    11.7956 S.o2    
  50 S50            3.9427    12.6830    -0.1167 S.o2    
  51 O51            4.1435    14.5009    12.9026 O.co2   
  52 O52            3.1922    14.0872    10.7245 O.co2   
  53 O53            3.5874    12.2496    12.2370 O.co2   
  54 O54            4.0582    13.2616    -1.4463 O.co2   
  55 O55            3.2390    11.4099    -0.1345 O.co2   
  56 O56            3.3601    13.6154     0.8358 O.co2   
  57 C57            5.1074     3.8243    -0.0252 C.3     
  58 C58            5.0096     5.3281    -0.0155 C.2     
  59 C59            5.6773     7.5329     0.7933 C.3     
  60 C60            5.7751     6.0291     0.7836 C.2     
  61 H61           -0.9568     1.8870     0.0168 H       
  62 H62           -0.3662    -2.6786    -0.0096 H       
  63 H63           -2.5080    -3.8831     0.0053 H       
  64 H64           -4.6153    -0.1611     0.0462 H       
  65 H65           -2.4806     1.0560     0.0418 H       
  66 H66            3.4555    -1.9563    -0.0408 H       
  67 H67            5.8199     1.6068    -0.0448 H       
  68 H68            5.5250     9.7905     0.2406 H       
  69 H69            5.3315    13.1705     2.8530 H       
  70 H70            5.6555     9.0346     6.9799 H       
  71 H71            5.3503    13.6207     6.7162 H       
  72 H72            5.3096    14.6689     8.9382 H       
  73 H73            5.5879    10.8161    10.7750 H       
  74 H74            5.6193     9.7540     8.5593 H       
  75 H75            5.6520     3.4899     0.8577 H       
  76 H76            5.6353     3.5003    -0.9221 H       
  77 H77            4.3083     5.8278    -0.6674 H       
  78 H78            4.7608     7.8406     0.2898 H       
  79 H79            6.5369     7.9563     0.2738 H       
  80 H80            6.4763     5.5294     1.4355 H       
  81 Na81          12.3559    19.6689    17.9026 Du      
  82 Na82          17.3559    24.6689    22.9026 Du      
  83 Na83          22.3559    29.6689    27.9026 Du      
  84 Na84          27.3559    34.6689    32.9026 Du      
  85 Na85          32.3559    39.6689    37.9026 Du      
  86 Na86          37.3559    44.6689    42.9026 Du      
  87 Na87          42.3559    49.6689    47.9026 Du      
  88 Na88          47.3559    54.6689    52.9026 Du      
@<TRIPOS>BOND
   1    1    2 2
   2    1    5 1
   3    1   61 1
   4    2    3 1
   5    2    6 1
   6    3    4 1
   7    4   12 ar
   8    4   16 ar
   9    5   22 2
  10    5   16 1
  11    6    7 ar
  12    6   11 ar
  13    7    8 ar
  14    7   62 1
  15    8    9 ar
  16    8   63 1
  17    9   10 ar
  18    9   17 1
  19   10   11 ar
  20   10   64 1
  21   11   65 1
  22   12   13 ar
  23   12   66 1
  24   13   14 ar
  25   13   24 1
  26   14   15 ar
  27   14   67 1
  28   15   16 ar
  29   15   23 1
  30   17   18 1
  31   18   19 ar
  32   18   20 ar
  33   18   21 ar
  34   23   57 1
  35   24   25 1
  36   25   26 ar
  37   25   27 ar
  38   25   28 ar
  39   29   30 1
  40   29   59 1
  41   30   32 ar
  42   30   31 ar
  43   31   35 ar
  44   31   37 1
  45   32   33 ar
  46   32   68 1
  47   33   34 ar
  48   33   47 1
  49   34   35 ar
  50   34   69 1
  51   35   38 1
  52   36   37 1
  53   36   39 2
  54   36   70 1
  55   37   46 2
  56   38   39 1
  57   39   40 1
  58   40   41 ar
  59   40   45 ar
  60   41   42 ar
  61   41   71 1
  62   42   43 ar
  63   42   72 1
  64   43   44 ar
  65   43   48 1
  66   44   45 ar
  67   44   73 1
  68   45   74 1
  69   47   50 1
  70   48   49 1
  71   49   51 ar
  72   49   52 ar
  73   49   53 ar
  74   50   54 ar
  75   50   55 ar
  76   50   56 ar
  77   57   58 1
  78   57   75 1
  79   57   76 1
  80   58   60 2
  81   58   77 1
  82   59   60 1
  83   59   78 1
  84   59   79 1
  85   60   80 1

#	End of record

