#	Name: ASD02500013
#	Creating user name:	WinNT
#	Creation time:	15. 06. 2019 20:22

#	Modifying user name:	WinNT
#	Modification time:	15. 06. 2019 20:22

#	Program:	/corina/corina34_cracker 3.40 0067  02.08.2006

@<TRIPOS>MOLECULE
ASD02500013
  28   28    0    0    0
SMALL
NO_CHARGES


@<TRIPOS>ATOM
   1 C1            -0.0167     1.3781     0.0096 C.ar    
   2 C2             0.0021    -0.0041     0.0020 C.ar    
   3 C3             1.2084    -0.6789    -0.0132 C.ar    
   4 C4             2.3961     0.0285    -0.0212 C.ar    
   5 C5             2.3773     1.4107    -0.0145 C.ar    
   6 C6             1.1709     2.0855     0.0021 C.ar    
   7 C7             1.2289    -2.1857    -0.0205 C.3     
   8 C8             1.2214    -2.6889    -1.4653 C.3     
   9 N9             2.4613    -2.2812    -2.1308 N.am    
  10 H10            0.3685    -2.2632    -1.9939 H       
  11 C11            1.1180    -4.1923    -1.4732 C.2     
  12 O12            1.9904    -4.8553    -1.9824 O.2     
  13 O13            0.0566    -4.7949    -0.9145 O.3     
  14 C14            2.4940    -2.1475    -3.4715 C.2     
  15 O15            1.4970    -2.3646    -4.1271 O.2     
  16 C16            3.7694    -1.7281    -4.1560 C.3     
  17 H17           -0.9592     1.9054     0.0170 H       
  18 H18           -0.9258    -0.5567     0.0083 H       
  19 H19            3.3386    -0.4987    -0.0324 H       
  20 H20            3.3052     1.9634    -0.0205 H       
  21 H21            1.1563     3.1654     0.0069 H       
  22 H22            2.1288    -2.5393     0.4828 H       
  23 H23            0.3491    -2.5635     0.5004 H       
  24 H24            3.2587    -2.1076    -1.6065 H       
  25 H25            0.0345    -5.7612    -0.9440 H       
  26 H26            4.5502    -1.5797    -3.4101 H       
  27 H27            4.0783    -2.5046    -4.8559 H       
  28 H28            3.6020    -0.7969    -4.6971 H       
@<TRIPOS>BOND
   1    1    2 ar
   2    1    6 ar
   3    1   17 1
   4    2    3 ar
   5    2   18 1
   6    3    4 ar
   7    3    7 1
   8    4    5 ar
   9    4   19 1
  10    5    6 ar
  11    5   20 1
  12    6   21 1
  13    7    8 1
  14    7   22 1
  15    7   23 1
  16    8    9 1
  17    8   10 1
  18    8   11 1
  19    9   14 am
  20    9   24 1
  21   11   12 2
  22   11   13 1
  23   13   25 1
  24   14   15 2
  25   14   16 1
  26   16   26 1
  27   16   27 1
  28   16   28 1

#	End of record

