#	Name: ASD03080085
#	Creating user name:	WinNT
#	Creation time:	15. 06. 2019 20:26

#	Modifying user name:	WinNT
#	Modification time:	15. 06. 2019 20:26

#	Program:	/corina/corina34_cracker 3.40 0067  02.08.2006

@<TRIPOS>MOLECULE
ASD03080085
  27   29    0    0    0
SMALL
NO_CHARGES


@<TRIPOS>ATOM
   1 N1             0.0175    -1.1399    -0.0042 N.1     
   2 C2             0.0021    -0.0041     0.0020 C.1     
   3 C3            -0.0173     1.4278     0.0099 C.ar    
   4 C4             1.1819     2.1444     0.0023 C.ar    
   5 C5             1.1646     3.5251     0.0098 C.ar    
   6 C6            -0.0360     4.2067     0.0250 C.ar    
   7 C7            -1.2426     3.5028     0.0327 C.ar    
   8 C8            -1.2330     2.1100     0.0193 C.ar    
   9 C9            -2.5272     4.2347     0.0499 C.2     
  10 O10           -3.7554     3.6940     0.0593 O.3     
  11 N11           -4.5927     4.5712     0.0728 N.2     
  12 C12           -4.0195     5.7469     0.0736 C.2     
  13 N13           -2.6855     5.5447     0.0647 N.2     
  14 C14           -4.7097     7.0618     0.0880 C.ar    
  15 C15           -6.1043     7.1398     0.1031 C.ar    
  16 C16           -6.7055     8.3824     0.1161 C.ar    
  17 N17           -5.9814     9.4847     0.1145 N.ar    
  18 C18           -4.6630     9.4547     0.1005 C.ar    
  19 C19           -3.9817     8.2541     0.0927 C.ar    
  20 H20            2.1245     1.6174    -0.0092 H       
  21 H21            2.0944     4.0744     0.0043 H       
  22 H22           -0.0423     5.2866     0.0312 H       
  23 H23           -2.1631     1.5611     0.0252 H       
  24 H24           -6.7034     6.2412     0.1042 H       
  25 H25           -7.7832     8.4529     0.1275 H       
  26 H26           -4.1089    10.3817     0.0997 H       
  27 H27           -2.9019     8.2368     0.0812 H       
@<TRIPOS>BOND
   1    1    2 3
   2    2    3 1
   3    3    4 ar
   4    3    8 ar
   5    4    5 ar
   6    4   20 1
   7    5    6 ar
   8    5   21 1
   9    6    7 ar
  10    6   22 1
  11    7    8 ar
  12    7    9 1
  13    8   23 1
  14    9   10 1
  15    9   13 2
  16   10   11 1
  17   11   12 2
  18   12   13 1
  19   12   14 1
  20   14   15 ar
  21   14   19 ar
  22   15   16 ar
  23   15   24 1
  24   16   17 ar
  25   16   25 1
  26   17   18 ar
  27   18   19 ar
  28   18   26 1
  29   19   27 1

#	End of record

