#	Name: ASD00170102
#	Creating user name:	WinNT
#	Creation time:	15. 06. 2019 18:31

#	Modifying user name:	WinNT
#	Modification time:	15. 06. 2019 18:31

#	Program:	/corina/corina34_cracker 3.40 0067  02.08.2006

@<TRIPOS>MOLECULE
ASD00170102
  35   37    0    0    0
SMALL
NO_CHARGES


@<TRIPOS>ATOM
   1 C1            -0.0340     1.3436    -0.0679 C.2     
   2 C2            -0.0073     0.0061    -0.0879 C.2     
   3 C3            -1.3325    -0.5855     0.0179 C.2     
   4 C4            -2.3270     0.3565     0.1156 C.2     
   5 S5            -1.6791     1.9319     0.0885 S.3     
   6 N6            -3.6712     0.0657     0.2270 N.pl3   
   7 Br7            1.4953     2.4497    -0.1844 Br      
   8 C8            -1.5713    -1.9834     0.0194 C.2     
   9 O9            -1.7719    -2.5681    -1.0299 O.2     
  10 C10            1.2384    -0.7879    -0.2057 C.ar    
  11 C11            2.1928    -0.7474     0.8099 C.ar    
  12 C12            3.3508    -1.4894     0.6948 C.ar    
  13 C13            3.5654    -2.2720    -0.4253 C.ar    
  14 C14            2.6220    -2.3163    -1.4364 C.ar    
  15 C15            1.4581    -1.5830    -1.3302 C.ar    
  16 C16           -1.5767    -2.7316     1.2958 C.ar    
  17 C17           -1.9185    -4.0846     1.3137 C.ar    
  18 C18           -1.9211    -4.7766     2.5071 C.ar    
  19 C19           -1.5864    -4.1319     3.6848 C.ar    
  20 C20           -1.2471    -2.7906     3.6740 C.ar    
  21 C21           -1.2345    -2.0887     2.4864 C.ar    
  22 N22            4.3652    -1.4471     1.7719 N.pl3   
  23 O23            4.1776    -0.7580     2.7585 O.2     
  24 O24            5.3876    -2.1015     1.6715 O.2     
  25 H25           -3.9756    -0.8530     0.1625 H       
  26 H26           -4.3117     0.7800     0.3699 H       
  27 H27            2.0264    -0.1364     1.6848 H       
  28 H28            4.4733    -2.8507    -0.5111 H       
  29 H29            2.7953    -2.9289    -2.3088 H       
  30 H30            0.7222    -1.6186    -2.1199 H       
  31 H31           -2.1806    -4.5887     0.3952 H       
  32 H32           -2.1854    -5.8236     2.5223 H       
  33 H33           -1.5904    -4.6781     4.6165 H       
  34 H34           -0.9875    -2.2931     4.5968 H       
  35 H35           -0.9692    -1.0418     2.4793 H       
@<TRIPOS>BOND
   1    1    2 2
   2    1    7 1
   3    1    5 1
   4    2    3 1
   5    2   10 1
   6    3    4 2
   7    3    8 1
   8    4    5 1
   9    4    6 1
  10    6   25 1
  11    6   26 1
  12    8    9 2
  13    8   16 1
  14   10   11 ar
  15   10   15 ar
  16   11   12 ar
  17   11   27 1
  18   12   13 ar
  19   12   22 1
  20   13   14 ar
  21   13   28 1
  22   14   15 ar
  23   14   29 1
  24   15   30 1
  25   16   17 ar
  26   16   21 ar
  27   17   18 ar
  28   17   31 1
  29   18   19 ar
  30   18   32 1
  31   19   20 ar
  32   19   33 1
  33   20   21 ar
  34   20   34 1
  35   21   35 1
  36   22   23 2
  37   22   24 2

#	End of record

