#	Name: ASD01200130
#	Creating user name:	WinNT
#	Creation time:	15. 06. 2019 19:08

#	Modifying user name:	WinNT
#	Modification time:	15. 06. 2019 19:08

#	Program:	/corina/corina34_cracker 3.40 0067  02.08.2006

@<TRIPOS>MOLECULE
ASD01200130
  48   51    0    0    0
SMALL
NO_CHARGES


@<TRIPOS>ATOM
   1 C1             0.6575     2.1997    -0.1039 C.ar    
   2 C2             0.3906     0.8433    -0.1549 C.ar    
   3 C3             1.4300    -0.0721    -0.1405 C.ar    
   4 C4             2.7315     0.3676    -0.0752 C.ar    
   5 C5             3.0124     1.7352    -0.0233 C.ar    
   6 C6             1.9596     2.6515    -0.0381 C.ar    
   7 C7             4.0618    -0.3426    -0.0431 C.3     
   8 N8             5.0855     0.7062     0.0292 N.am    
   9 C9             4.4767     1.9045     0.0405 C.2     
  10 O10            5.0505     2.9747     0.0957 O.2     
  11 O11            4.1405    -1.1858     1.1079 O.3     
  12 C12            6.5326     0.4838     0.0806 C.3     
  13 C13            7.0647     0.3132    -1.3190 C.ar    
  14 C14            3.9257    -0.5028     2.3446 C.3     
  15 C15            4.1542    -1.4547     3.4904 C.2     
  16 N16            4.0076    -1.0280     4.7604 N.am    
  17 O17            4.4699    -2.6047     3.2697 O.2     
  18 C18            4.2184    -1.9059     5.8173 C.2     
  19 C19            7.4925     1.4166    -2.0339 C.ar    
  20 C20            7.9806     1.2629    -3.3171 C.ar    
  21 C21            8.0413     0.0000    -3.8882 C.ar    
  22 C22            7.6114    -1.1055    -3.1688 C.ar    
  23 C23            7.1294    -0.9471    -1.8839 C.ar    
  24 N24            4.1045    -1.5989     7.0715 N.2     
  25 C25            4.3412    -2.5592     7.9455 C.2     
  26 C26            4.6707    -3.7335     7.4041 C.2     
  27 S27            4.6582    -3.5498     5.6520 S.3     
  28 O28            8.5207    -0.1537    -5.1506 O.3     
  29 C29            8.5540    -1.4828    -5.6744 C.3     
  30 H30           -0.1571     2.9087    -0.1200 H       
  31 H31           -0.6312     0.4971    -0.2059 H       
  32 H32            1.2186    -1.1305    -0.1802 H       
  33 H33            2.1636     3.7113     0.0012 H       
  34 H34            4.1934    -0.9326    -0.9500 H       
  35 H35            7.0154     1.3404     0.5509 H       
  36 H36            6.7417    -0.4149     0.6609 H       
  37 H37            4.6202     0.3336     2.4232 H       
  38 H38            2.9021    -0.1298     2.3807 H       
  39 H39            3.7551    -0.1082     4.9370 H       
  40 H40            7.4447     2.3995    -1.5890 H       
  41 H41            8.3144     2.1251    -3.8753 H       
  42 H42            7.6577    -2.0896    -3.6112 H       
  43 H43            6.7946    -1.8075    -1.3234 H       
  44 H44            4.2737    -2.4069     9.0126 H       
  45 H45            4.9015    -4.6391     7.9453 H       
  46 H46            9.1867    -2.1065    -5.0429 H       
  47 H47            7.5437    -1.8915    -5.6930 H       
  48 H48            8.9571    -1.4643    -6.6870 H       
@<TRIPOS>BOND
   1    1    2 ar
   2    1    6 ar
   3    1   30 1
   4    2    3 ar
   5    2   31 1
   6    3    4 ar
   7    3   32 1
   8    4    5 ar
   9    4    7 1
  10    5    6 ar
  11    5    9 1
  12    6   33 1
  13    7    8 1
  14    7   11 1
  15    7   34 1
  16    8    9 am
  17    8   12 1
  18    9   10 2
  19   11   14 1
  20   12   13 1
  21   12   35 1
  22   12   36 1
  23   13   19 ar
  24   13   23 ar
  25   14   15 1
  26   14   37 1
  27   14   38 1
  28   15   16 am
  29   15   17 2
  30   16   18 1
  31   16   39 1
  32   18   24 2
  33   18   27 1
  34   19   20 ar
  35   19   40 1
  36   20   21 ar
  37   20   41 1
  38   21   22 ar
  39   21   28 1
  40   22   23 ar
  41   22   42 1
  42   23   43 1
  43   24   25 1
  44   25   26 2
  45   25   44 1
  46   26   27 1
  47   26   45 1
  48   28   29 1
  49   29   46 1
  50   29   47 1
  51   29   48 1

#	End of record

