#	Name: ASD03430718
#	Creating user name:	WinNT
#	Creation time:	15. 06. 2019 20:41

#	Modifying user name:	WinNT
#	Modification time:	15. 06. 2019 20:41

#	Program:	/corina/corina34_cracker 3.40 0067  02.08.2006

@<TRIPOS>MOLECULE
ASD03430718
  45   50    0    0    0
SMALL
NO_CHARGES


@<TRIPOS>ATOM
   1 C1             0.0568     1.3903    -0.1137 C.ar    
   2 C2             0.0541     0.0041    -0.0892 C.ar    
   3 C3             1.2442    -0.6919    -0.0601 C.ar    
   4 C4             2.4602    -0.0154    -0.0449 C.ar    
   5 C5             2.4592     1.3755    -0.0748 C.ar    
   6 C6             1.2655     2.0766    -0.1075 C.ar    
   7 O7             3.5092    -0.8851     0.0133 O.3     
   8 C8             1.5706    -2.1612    -0.0504 C.3     
   9 C9             3.0657    -2.1926    -0.3972 C.3     
  10 C10            0.3971    -3.8370     1.0159 C.ar    
  11 C11            1.2905    -2.8006     1.2772 C.ar    
  12 C12            0.7526    -2.9337    -1.0451 C.2     
  13 N13            0.1034    -3.8886    -0.3499 N.am    
  14 O14            0.6883    -2.7364    -2.2402 O.2     
  15 C15            1.7230    -2.5557     2.5610 C.ar    
  16 C16            1.2725    -3.3429     3.6063 C.ar    
  17 C17            0.3870    -4.3754     3.3581 C.ar    
  18 C18           -0.0500    -4.6245     2.0734 C.ar    
  19 C19           -0.7644    -4.8244    -0.9286 C.ar    
  20 O20           -1.1273     2.0617    -0.1492 O.3     
  21 C21           -1.0901     3.4496     0.2009 C.3     
  22 C22            0.0894     4.0989    -0.5356 C.3     
  23 O23            1.2918     3.4378    -0.1284 O.3     
  24 C24           -1.9690    -4.4077    -1.4793 C.ar    
  25 C25           -0.4182    -6.1687    -0.9573 C.ar    
  26 C26           -1.2746    -7.0893    -1.5286 C.ar    
  27 C27           -2.4779    -6.6724    -2.0726 C.ar    
  28 C28           -2.8226    -5.3314    -2.0497 C.ar    
  29 F29           -3.3143    -7.5745    -2.6310 F       
  30 H30           -0.8832    -0.5324    -0.0927 H       
  31 H31            3.3963     1.9124    -0.0720 H       
  32 H32            3.2116    -2.3321    -1.4684 H       
  33 H33            3.5780    -2.9705     0.1688 H       
  34 H34            2.4148    -1.7488     2.7525 H       
  35 H35            1.6121    -3.1514     4.6135 H       
  36 H36            0.0359    -4.9900     4.1739 H       
  37 H37           -0.7415    -5.4330     1.8875 H       
  38 H38           -2.0210     3.9299    -0.1005 H       
  39 H39           -0.9537     3.5538     1.2773 H       
  40 H40           -0.0434     3.9881    -1.6118 H       
  41 H41            0.1460     5.1566    -0.2786 H       
  42 H42           -2.2383    -3.3620    -1.4613 H       
  43 H43            0.5203    -6.4942    -0.5335 H       
  44 H44           -1.0056    -8.1350    -1.5514 H       
  45 H45           -3.7617    -5.0083    -2.4742 H       
@<TRIPOS>BOND
   1    1    2 ar
   2    1    6 ar
   3    1   20 1
   4    2    3 ar
   5    2   30 1
   6    3    4 ar
   7    3    8 1
   8    4    5 ar
   9    4    7 1
  10    5    6 ar
  11    5   31 1
  12    6   23 1
  13    7    9 1
  14    8    9 1
  15    8   11 1
  16    8   12 1
  17    9   32 1
  18    9   33 1
  19   10   11 ar
  20   10   13 1
  21   10   18 ar
  22   11   15 ar
  23   12   13 am
  24   12   14 2
  25   13   19 1
  26   15   16 ar
  27   15   34 1
  28   16   17 ar
  29   16   35 1
  30   17   18 ar
  31   17   36 1
  32   18   37 1
  33   19   24 ar
  34   19   25 ar
  35   20   21 1
  36   21   22 1
  37   21   38 1
  38   21   39 1
  39   22   23 1
  40   22   40 1
  41   22   41 1
  42   24   28 ar
  43   24   42 1
  44   25   26 ar
  45   25   43 1
  46   26   27 ar
  47   26   44 1
  48   27   28 ar
  49   27   29 1
  50   28   45 1

#	End of record

