#	Name: ASD01140553
#	Creating user name:	WinNT
#	Creation time:	15. 06. 2019 19:01

#	Modifying user name:	WinNT
#	Modification time:	15. 06. 2019 19:01

#	Program:	/corina/corina34_cracker 3.40 0067  02.08.2006

@<TRIPOS>MOLECULE
ASD01140553
  58   61    0    0    0
SMALL
NO_CHARGES


@<TRIPOS>ATOM
   1 C1            -0.2921     1.5122    -0.3490 C.3     
   2 C2            -0.2148    -0.0147    -0.2861 C.3     
   3 C3             0.4430    -0.4383     1.0286 C.3     
   4 C4             1.8536     0.1491     1.1066 C.3     
   5 C5             1.7753     1.6761     1.0429 C.3     
   6 C6             1.1207     2.0961    -0.2758 C.3     
   7 C7             1.9514     1.5643    -1.4444 C.3     
   8 C8             3.1876     2.2606     1.1184 C.3     
   9 C9             4.0202     1.7363    -0.0534 C.3     
  10 C10            3.3672     2.1569    -1.3707 C.3     
  11 C11            2.1252     1.4610    -3.9659 C.3     
  12 C12            1.2703     1.9032    -2.7660 C.3     
  13 C13            3.4724     2.1444    -3.8363 C.3     
  14 C14            4.4980     1.8406    -4.9235 C.3     
  15 C15            4.1476     1.6017    -2.5476 C.3     
  16 C16            5.5803     2.1217    -2.7056 C.3     
  17 C17            5.8733     1.8802    -4.2117 C.3     
  18 C18           -0.3895     0.0768     2.2044 C.3     
  19 H19            1.1807     2.0455     1.8784 H       
  20 H20            1.0686     3.1837    -0.3266 H       
  21 H21            3.3147     3.2443    -1.4248 H       
  22 C22            3.2758     3.6572    -3.7194 C.3     
  23 C23            4.4391     2.8890    -6.0045 C.2     
  24 O24            5.1686     3.8500    -5.9539 O.2     
  25 C25            3.4699     2.7381    -7.1486 C.3     
  26 O26            3.6031     3.8505    -8.0356 O.3     
  27 O27            0.5171    -1.8642     1.0862 O.3     
  28 H28            2.0190     0.4795    -1.3634 H       
  29 H29            4.1264     0.5119    -2.5361 H       
  30 H30           -0.7623     1.8142    -1.2848 H       
  31 H31           -0.8820     1.8812     0.4901 H       
  32 H32           -1.2203    -0.4320    -0.3402 H       
  33 H33            0.3771    -0.3833    -1.1239 H       
  34 H34            2.3210    -0.1519     2.0442 H       
  35 H35            2.4474    -0.2195     0.2701 H       
  36 H36            3.1339     3.3481     1.0680 H       
  37 H37            3.6542     1.9631     2.0575 H       
  38 H38            5.0268     2.1507     0.0018 H       
  39 H39            4.0718     0.6486    -0.0045 H       
  40 H40            2.2552     0.3789    -3.9498 H       
  41 H41            1.6438     1.7638    -4.8958 H       
  42 H42            0.3055     1.3980    -2.8099 H       
  43 H43            1.1106     2.9801    -2.8193 H       
  44 H44            4.3194     0.8516    -5.3454 H       
  45 H45            5.6334     3.1841    -2.4679 H       
  46 H46            6.2687     1.5510    -2.0824 H       
  47 H47            6.3908     0.9301    -4.3444 H       
  48 H48            6.4777     2.6949    -4.6105 H       
  49 H49           -1.3942    -0.3422     2.1493 H       
  50 H50            0.0791    -0.2250     3.1411 H       
  51 H51           -0.4464     1.1644     2.1604 H       
  52 H52            2.6285     3.8749    -2.8698 H       
  53 H53            4.2424     4.1389    -3.5725 H       
  54 H54            2.8163     4.0355    -4.6326 H       
  55 H55            3.6852     1.8156    -7.6878 H       
  56 H56            2.4521     2.7028    -6.7602 H       
  57 H57            3.0081     3.8197    -8.7972 H       
  58 H58           -0.3426    -2.3048     1.0423 H       
@<TRIPOS>BOND
   1    1    2 1
   2    1    6 1
   3    1   30 1
   4    1   31 1
   5    2    3 1
   6    2   32 1
   7    2   33 1
   8    3    4 1
   9    3   18 1
  10    3   27 1
  11    4    5 1
  12    4   34 1
  13    4   35 1
  14    5    6 1
  15    5    8 1
  16    5   19 1
  17    6    7 1
  18    6   20 1
  19    7   10 1
  20    7   28 1
  21    7   12 1
  22    8    9 1
  23    8   36 1
  24    8   37 1
  25    9   10 1
  26    9   38 1
  27    9   39 1
  28   10   15 1
  29   10   21 1
  30   11   12 1
  31   11   13 1
  32   11   40 1
  33   11   41 1
  34   12   42 1
  35   12   43 1
  36   13   15 1
  37   13   22 1
  38   13   14 1
  39   14   17 1
  40   14   23 1
  41   14   44 1
  42   15   16 1
  43   15   29 1
  44   16   17 1
  45   16   45 1
  46   16   46 1
  47   17   47 1
  48   17   48 1
  49   18   49 1
  50   18   50 1
  51   18   51 1
  52   22   52 1
  53   22   53 1
  54   22   54 1
  55   23   24 2
  56   23   25 1
  57   25   26 1
  58   25   55 1
  59   25   56 1
  60   26   57 1
  61   27   58 1

#	End of record

