#	Name: ASD01028019
#	Creating user name:	WinNT
#	Creation time:	15. 06. 2019 18:56

#	Modifying user name:	WinNT
#	Modification time:	15. 06. 2019 18:56

#	Program:	/corina/corina34_cracker 3.40 0067  02.08.2006

@<TRIPOS>MOLECULE
ASD01028019
  58   61    0    0    0
SMALL
NO_CHARGES


@<TRIPOS>ATOM
   1 C1             0.1291     2.1074    -0.1284 C.ar    
   2 N2            -0.1686     0.8604    -0.4698 N.ar    
   3 C3             1.4757     2.4134     0.1812 C.ar    
   4 C4             1.8762     3.7027     0.5512 C.ar    
   5 C5             3.1888     3.9464     0.8408 C.ar    
   6 C6             4.1403     2.9193     0.7717 C.ar    
   7 C7             3.7718     1.6423     0.4103 C.ar    
   8 C8             2.4319     1.3700     0.1093 C.ar    
   9 O9             5.4398     3.1865     1.0639 O.3     
  10 N10            2.0214     0.1428    -0.2475 N.ar    
  11 C11            0.7589    -0.0822    -0.5234 C.ar    
  12 N12           -0.8476     3.0817    -0.0820 N.pl3   
  13 C13           -2.1912     2.7344    -0.2605 C.ar    
  14 C14           -4.4189     3.3192    -0.9396 C.ar    
  15 C15           -4.8498     2.0453    -0.6132 C.ar    
  16 C16           -3.9572     1.1188    -0.1065 C.ar    
  17 C17           -2.6303     1.4594     0.0707 C.ar    
  18 Cl18          -5.5434     4.4795    -1.5745 Cl      
  19 C19           -3.0908     3.6671    -0.7646 C.ar    
  20 F20           -2.6694     4.9106    -1.0826 F       
  21 C21            6.3616     2.0981     0.9754 C.3     
  22 O22            3.5768     5.1994     1.1996 O.3     
  23 C23            2.5625     6.2050     1.2434 C.3     
  24 C24            3.0159     7.3498     2.1536 C.3     
  25 C25            1.9529     8.4507     2.1485 C.3     
  26 N26            1.7590     8.9392     0.7773 N.3     
  27 C27            1.2781     7.8683    -0.1049 C.3     
  28 C28            2.3210     6.7500    -0.1671 C.3     
  29 C29            0.8471    10.0907     0.7527 C.3     
  30 C30            0.8628    10.7146    -0.6190 C.2     
  31 N31            0.0970    11.7932    -0.8775 N.am    
  32 O32            1.5644    10.2462    -1.4903 O.2     
  33 C33            0.1122    12.3997    -2.2110 C.3     
  34 H34            1.1510     4.5011     0.6070 H       
  35 H35            4.5111     0.8566     0.3599 H       
  36 H36            0.4630    -1.0815    -0.8068 H       
  37 H37           -0.6025     4.0071     0.0743 H       
  38 H38           -5.8857     1.7743    -0.7543 H       
  39 H39           -4.2974     0.1258     0.1478 H       
  40 H40           -1.9346     0.7342     0.4663 H       
  41 H41            6.0617     1.3108     1.6671 H       
  42 H42            6.3646     1.7064    -0.0417 H       
  43 H43            7.3615     2.4470     1.2334 H       
  44 H44            1.6394     5.7747     1.6316 H       
  45 H45            3.1483     6.9766     3.1691 H       
  46 H46            3.9598     7.7536     1.7877 H       
  47 H47            1.0128     8.0497     2.5275 H       
  48 H48            2.2792     9.2736     2.7844 H       
  49 H49            0.3413     7.4700     0.2846 H       
  50 H50            1.1144     8.2681    -1.1056 H       
  51 H51            3.2540     7.1444    -0.5695 H       
  52 H52            1.9570     5.9482    -0.8096 H       
  53 H53           -0.1638     9.7588     0.9893 H       
  54 H54            1.1701    10.8258     1.4899 H       
  55 H55           -0.4641    12.1679    -0.1806 H       
  56 H56           -0.2108    11.6647    -2.9482 H       
  57 H57           -0.5643    13.2541    -2.2292 H       
  58 H58            1.1231    12.7316    -2.4476 H       
@<TRIPOS>BOND
   1    1    2 ar
   2    1    3 ar
   3    1   12 1
   4    2   11 ar
   5    3    4 ar
   6    3    8 ar
   7    4    5 ar
   8    4   34 1
   9    5    6 ar
  10    5   22 1
  11    6    7 ar
  12    6    9 1
  13    7    8 ar
  14    7   35 1
  15    8   10 ar
  16    9   21 1
  17   10   11 ar
  18   11   36 1
  19   12   13 1
  20   12   37 1
  21   13   19 ar
  22   13   17 ar
  23   14   15 ar
  24   14   18 1
  25   14   19 ar
  26   15   16 ar
  27   15   38 1
  28   16   17 ar
  29   16   39 1
  30   17   40 1
  31   19   20 1
  32   21   41 1
  33   21   42 1
  34   21   43 1
  35   22   23 1
  36   23   24 1
  37   23   28 1
  38   23   44 1
  39   24   25 1
  40   24   45 1
  41   24   46 1
  42   25   26 1
  43   25   47 1
  44   25   48 1
  45   26   27 1
  46   26   29 1
  47   27   28 1
  48   27   49 1
  49   27   50 1
  50   28   51 1
  51   28   52 1
  52   29   30 1
  53   29   53 1
  54   29   54 1
  55   30   31 am
  56   30   32 2
  57   31   33 1
  58   31   55 1
  59   33   56 1
  60   33   57 1
  61   33   58 1

#	End of record

