#	Name: ASD01940280
#	Creating user name:	WinNT
#	Creation time:	15. 06. 2019 20:12

#	Modifying user name:	WinNT
#	Modification time:	15. 06. 2019 20:12

#	Program:	/corina/corina34_cracker 3.40 0067  02.08.2006

@<TRIPOS>MOLECULE
ASD01940280
  36   38    0    0    0
SMALL
NO_CHARGES


@<TRIPOS>ATOM
   1 C1            -0.4446     4.2296    -3.8352 C.3     
   2 C2            -0.8830     3.7648    -5.2254 C.3     
   3 C3            -1.6404     4.8927    -4.5217 C.3     
   4 S4            -0.7875     3.1266    -2.4365 S.o2    
   5 O5            -2.1865     3.0360    -2.2042 O.2     
   6 O6             0.0197     1.9596    -2.5122 O.2     
   7 N7            -0.2063     3.9403    -1.1164 N.am    
   8 C8             1.1590     4.2521    -1.0297 C.ar    
   9 C9             1.5675     5.5817    -0.9448 C.ar    
  10 C10            2.9199     5.8850    -0.8592 C.ar    
  11 C11            3.8593     4.8663    -0.8584 C.ar    
  12 C12            3.4526     3.5457    -0.9428 C.ar    
  13 C13            2.1053     3.2366    -1.0226 C.ar    
  14 N14            0.6155     6.6105    -0.9462 N.pl3   
  15 C15            1.0051     7.9233    -1.2296 C.ar    
  16 C16            1.3335     8.2876    -2.5318 C.ar    
  17 C17            1.7177     9.5864    -2.8077 C.ar    
  18 C18            1.7761    10.5227    -1.7903 C.ar    
  19 C19            1.4501    10.1627    -0.4954 C.ar    
  20 C20            1.0597     8.8675    -0.2134 C.ar    
  21 I21            2.3602    12.4898    -2.2125 I       
  22 F22            1.2774     7.3732    -3.5247 F       
  23 F23            1.7119     1.9464    -1.0993 F       
  24 F24            5.1748     5.1625    -0.7755 F       
  25 F25            3.3197     7.1729    -0.7771 F       
  26 H26            0.4782     4.8054    -3.7648 H       
  27 H27           -0.2486     4.0349    -6.0696 H       
  28 H28           -1.3775     2.7963    -5.2995 H       
  29 H29           -2.6332     4.6661    -4.1328 H       
  30 H30           -1.5043     5.9047    -4.9029 H       
  31 H31           -0.8096     4.2013    -0.4032 H       
  32 H32            4.1877     2.7545    -0.9419 H       
  33 H33           -0.3136     6.4119    -0.7506 H       
  34 H34            1.9729     9.8706    -3.8178 H       
  35 H35            1.4968    10.8961     0.2960 H       
  36 H36            0.8011     8.5891     0.7975 H       
@<TRIPOS>BOND
   1    1    2 1
   2    1    3 1
   3    1    4 1
   4    1   26 1
   5    2    3 1
   6    2   27 1
   7    2   28 1
   8    3   29 1
   9    3   30 1
  10    4    5 2
  11    4    6 2
  12    4    7 am
  13    7    8 1
  14    7   31 1
  15    8    9 ar
  16    8   13 ar
  17    9   10 ar
  18    9   14 1
  19   10   11 ar
  20   10   25 1
  21   11   12 ar
  22   11   24 1
  23   12   13 ar
  24   12   32 1
  25   13   23 1
  26   14   15 1
  27   14   33 1
  28   15   16 ar
  29   15   20 ar
  30   16   17 ar
  31   16   22 1
  32   17   18 ar
  33   17   34 1
  34   18   19 ar
  35   18   21 1
  36   19   20 ar
  37   19   35 1
  38   20   36 1

#	End of record

