#	Name: ASD01883874
#	Creating user name:	WinNT
#	Creation time:	15. 06. 2019 19:47

#	Modifying user name:	WinNT
#	Modification time:	15. 06. 2019 19:47

#	Program:	/corina/corina34_cracker 3.40 0067  02.08.2006

@<TRIPOS>MOLECULE
ASD01883874
  56   59    0    0    0
SMALL
NO_CHARGES


@<TRIPOS>ATOM
   1 C1             0.5570     1.4174    -1.0313 C.ar    
   2 C2             0.6660     0.0655    -1.1817 C.ar    
   3 C3             1.8838    -0.5746    -0.9150 C.ar    
   4 C4             2.9909     0.1835    -0.4922 C.ar    
   5 C5             2.8648     1.5536    -0.3443 C.ar    
   6 C6             1.6510     2.1703    -0.6131 C.ar    
   7 C7             2.0032    -2.0258    -1.0752 C.2     
   8 O8             3.0591    -2.5769    -0.8434 O.2     
   9 C9             0.8147    -2.8343    -1.5278 C.3     
  10 O10            4.1743    -0.4248    -0.2307 O.3     
  11 C11            4.0443     2.3750     0.1085 C.3     
  12 C12            4.8421     2.8380    -1.1122 C.3     
  13 C13            6.0396     3.6720    -0.6524 C.3     
  14 O14            1.5298     3.5138    -0.4679 O.3     
  15 C15            0.2534     4.0855    -0.7612 C.3     
  16 C16            0.3089     5.5759    -0.5451 C.ar    
  17 C17            0.0590     7.4706     0.8975 C.ar    
  18 C18            0.0089     6.1048     0.6968 C.ar    
  19 C19            0.6652     6.4116    -1.5874 C.ar    
  20 C20            0.7173     7.7781    -1.3918 C.ar    
  21 C21            0.4116     8.3118    -0.1480 C.ar    
  22 O22            0.4612     9.6558     0.0468 O.3     
  23 C23           -0.5565    10.4082    -0.4421 C.ar    
  24 N24           -1.6051     9.8145    -0.9891 N.ar    
  25 C25           -0.4889    11.7910    -0.3578 C.ar    
  26 C26           -1.5429    12.5513    -0.8648 C.ar    
  27 C27           -2.6273    11.8803    -1.4389 C.ar    
  28 C28           -2.6197    10.5019    -1.4784 C.ar    
  29 C29           -1.5145    14.0341    -0.7962 C.2     
  30 N30           -2.4421    14.8605    -1.2367 N.2     
  31 N31           -2.0476    16.0627    -0.9918 N.pl3   
  32 N32           -0.8998    16.0242    -0.4103 N.2     
  33 N33           -0.5431    14.7927    -0.2691 N.2     
  34 H34           -0.3823     1.9068    -1.2424 H       
  35 H35           -0.1872    -0.5118    -1.5062 H       
  36 H36            0.4914    -2.4868    -2.5090 H       
  37 H37            1.0929    -3.8865    -1.5885 H       
  38 H38            0.0004    -2.7144    -0.8133 H       
  39 H39            4.7616    -0.4883    -0.9963 H       
  40 H40            3.6903     3.2446     0.6623 H       
  41 H41            4.6830     1.7699     0.7519 H       
  42 H42            5.1961     1.9685    -1.6660 H       
  43 H43            4.2034     3.4432    -1.7555 H       
  44 H44            5.6856     4.5415    -0.0986 H       
  45 H45            6.6783     3.0668    -0.0091 H       
  46 H46            6.6080     4.0018    -1.5220 H       
  47 H47           -0.0076     3.8783    -1.7990 H       
  48 H48           -0.4993     3.6507    -0.1035 H       
  49 H49           -0.1761     7.8832     1.8675 H       
  50 H50           -0.2652     5.4495     1.5104 H       
  51 H51            0.9034     5.9956    -2.5552 H       
  52 H52            0.9960     8.4304    -2.2061 H       
  53 H53            0.3665    12.2716     0.0936 H       
  54 H54           -3.4622    12.4344    -1.8418 H       
  55 H55           -3.4559     9.9775    -1.9167 H       
  56 H56           -2.5385    16.8700    -1.2115 H       
@<TRIPOS>BOND
   1    1    2 ar
   2    1    6 ar
   3    1   34 1
   4    2    3 ar
   5    2   35 1
   6    3    4 ar
   7    3    7 1
   8    4    5 ar
   9    4   10 1
  10    5    6 ar
  11    5   11 1
  12    6   14 1
  13    7    8 2
  14    7    9 1
  15    9   36 1
  16    9   37 1
  17    9   38 1
  18   10   39 1
  19   11   12 1
  20   11   40 1
  21   11   41 1
  22   12   13 1
  23   12   42 1
  24   12   43 1
  25   13   44 1
  26   13   45 1
  27   13   46 1
  28   14   15 1
  29   15   16 1
  30   15   47 1
  31   15   48 1
  32   16   19 ar
  33   16   18 ar
  34   17   18 ar
  35   17   21 ar
  36   17   49 1
  37   18   50 1
  38   19   20 ar
  39   19   51 1
  40   20   21 ar
  41   20   52 1
  42   21   22 1
  43   22   23 1
  44   23   25 ar
  45   23   24 ar
  46   24   28 ar
  47   25   26 ar
  48   25   53 1
  49   26   27 ar
  50   26   29 1
  51   27   28 ar
  52   27   54 1
  53   28   55 1
  54   29   30 2
  55   29   33 1
  56   30   31 1
  57   31   32 1
  58   31   56 1
  59   32   33 2

#	End of record

