#	Name: ASD03082439
#	Creating user name:	WinNT
#	Creation time:	15. 06. 2019 20:27

#	Modifying user name:	WinNT
#	Modification time:	15. 06. 2019 20:27

#	Program:	/corina/corina34_cracker 3.40 0067  02.08.2006

@<TRIPOS>MOLECULE
ASD03082439
  46   48    0    0    0
SMALL
NO_CHARGES


@<TRIPOS>ATOM
   1 C1             1.0958     3.4372    -0.4834 C.ar    
   2 C2             0.0397     4.0502    -1.1475 C.ar    
   3 C3            -0.0097     5.4269    -1.2449 C.ar    
   4 C4             0.9898     6.1986    -0.6828 C.ar    
   5 C5             2.0467     5.5923    -0.0185 C.ar    
   6 N6             1.1463     2.0447    -0.3852 N.pl3   
   7 C7             2.3816     1.3942    -0.2958 C.2     
   8 C8             2.5751     0.0188    -0.0809 C.2     
   9 N9             3.5599     1.9620    -0.4039 N.2     
  10 N10            4.5387     0.9708    -0.2562 N.pl3   
  11 C11            3.9062    -0.2154    -0.0588 C.2     
  12 C12            5.9220     1.1669    -0.3067 C.ar    
  13 C13            6.7449     0.2800    -0.9980 C.ar    
  14 C14            6.5131     2.2577     0.3285 C.ar    
  15 C15            7.8817     2.4157     0.2551 C.ar    
  16 N16            8.6280     1.5505    -0.4052 N.ar    
  17 C17            8.1056     0.5088    -1.0239 C.ar    
  18 C18            8.5325     3.5913     0.9372 C.3     
  19 H19            8.7514    -0.1761    -1.5531 H       
  20 C20            2.1031     4.2106     0.0770 C.ar    
  21 O21            3.0286     6.3526     0.5335 O.3     
  22 C22            4.5698    -1.5525     0.1483 C.3     
  23 C23            4.6203    -2.2965    -1.1613 C.2     
  24 O24            5.1719    -3.5188    -1.2180 O.3     
  25 O25            4.1642    -1.7926    -2.1603 O.2     
  26 C26            5.1859    -4.1764    -2.5125 C.3     
  27 C27            2.9090     7.7695     0.3920 C.3     
  28 F28            1.7196     8.1991     0.9903 F       
  29 F29            3.9958     8.3937     1.0136 F       
  30 F30            2.8944     8.1029    -0.9667 F       
  31 H31           -0.7424     3.4495    -1.5879 H       
  32 H32           -0.8308     5.9015    -1.7616 H       
  33 H33            0.9484     7.2750    -0.7610 H       
  34 H34            0.3249     1.5288    -0.3789 H       
  35 H35            1.7976    -0.7203     0.0449 H       
  36 H36            6.3237    -0.5748    -1.5063 H       
  37 H37            5.9080     2.9696     0.8702 H       
  38 H38            8.7997     3.3170     1.9577 H       
  39 H39            9.4313     3.8767     0.3905 H       
  40 H40            7.8373     4.4306     0.9567 H       
  41 H41            2.9248     3.7371     0.5936 H       
  42 H42            5.5834    -1.4015     0.5196 H       
  43 H43            3.9997    -2.1326     0.8739 H       
  44 H44            4.1630    -4.2999    -2.8683 H       
  45 H45            5.7467    -3.5688    -3.2227 H       
  46 H46            5.6583    -5.1542    -2.4183 H       
@<TRIPOS>BOND
   1    1    2 ar
   2    1    6 1
   3    1   20 ar
   4    2    3 ar
   5    2   31 1
   6    3    4 ar
   7    3   32 1
   8    4    5 ar
   9    4   33 1
  10    5   20 ar
  11    5   21 1
  12    6    7 1
  13    6   34 1
  14    7    8 1
  15    7    9 2
  16    8   11 2
  17    8   35 1
  18    9   10 1
  19   10   11 1
  20   10   12 1
  21   11   22 1
  22   12   13 ar
  23   12   14 ar
  24   13   17 ar
  25   13   36 1
  26   14   15 ar
  27   14   37 1
  28   15   16 ar
  29   15   18 1
  30   16   17 ar
  31   17   19 1
  32   18   38 1
  33   18   39 1
  34   18   40 1
  35   20   41 1
  36   21   27 1
  37   22   23 1
  38   22   42 1
  39   22   43 1
  40   23   24 1
  41   23   25 2
  42   24   26 1
  43   26   44 1
  44   26   45 1
  45   26   46 1
  46   27   28 1
  47   27   29 1
  48   27   30 1

#	End of record

