#	Name: ASD01915204
#	Creating user name:	WinNT
#	Creation time:	15. 06. 2019 20:05

#	Modifying user name:	WinNT
#	Modification time:	15. 06. 2019 20:05

#	Program:	/corina/corina34_cracker 3.40 0067  02.08.2006

@<TRIPOS>MOLECULE
ASD01915204
  23   24    0    0    0
SMALL
NO_CHARGES


@<TRIPOS>ATOM
   1 C1            -0.0169     1.3923     0.0097 C.ar    
   2 C2             0.0021    -0.0041     0.0020 C.ar    
   3 C3            -1.1847    -0.7146     0.0090 C.ar    
   4 C4            -2.3958    -0.0477     0.0241 C.ar    
   5 C5            -2.4270     1.3492     0.0324 C.ar    
   6 C6            -1.2343     2.0700     0.0308 C.ar    
   7 F7            -1.1603    -2.0653     0.0006 F       
   8 C8             1.2523     2.1501     0.0016 C.2     
   9 N9             2.4292     1.4934    -0.0131 N.am    
  10 O10            1.2346     3.3656     0.0083 O.2     
  11 C11            3.6217     2.2055    -0.0207 C.2     
  12 S12            5.1809     1.5042    -0.0393 S.3     
  13 C13            5.9131     3.1066    -0.0377 C.2     
  14 C14            4.9312     4.0102    -0.0235 C.2     
  15 N15            3.7145     3.4986    -0.0202 N.2     
  16 C16           -3.6819     2.0387     0.0480 C.1     
  17 N17           -4.6775     2.5857     0.0605 N.1     
  18 H18            0.9452    -0.5302    -0.0098 H       
  19 H19           -3.3194    -0.6075     0.0292 H       
  20 H20           -1.2536     3.1498     0.0371 H       
  21 H21            2.4434     0.5235    -0.0185 H       
  22 H22            6.9717     3.3202    -0.0467 H       
  23 H23            5.1171     5.0741    -0.0189 H       
@<TRIPOS>BOND
   1    1    2 ar
   2    1    8 1
   3    1    6 ar
   4    2    3 ar
   5    2   18 1
   6    3    4 ar
   7    3    7 1
   8    4    5 ar
   9    4   19 1
  10    5    6 ar
  11    5   16 1
  12    6   20 1
  13    8    9 am
  14    8   10 2
  15    9   11 1
  16    9   21 1
  17   11   12 1
  18   11   15 2
  19   12   13 1
  20   13   14 2
  21   13   22 1
  22   14   15 1
  23   14   23 1
  24   16   17 3

#	End of record

