#	Name: ASD01140516
#	Creating user name:	WinNT
#	Creation time:	15. 06. 2019 19:01

#	Modifying user name:	WinNT
#	Modification time:	15. 06. 2019 19:01

#	Program:	/corina/corina34_cracker 3.40 0067  02.08.2006

@<TRIPOS>MOLECULE
ASD01140516
  47   50    0    0    0
SMALL
NO_CHARGES


@<TRIPOS>ATOM
   1 C1            -0.1314     1.4062     0.0336 C.ar    
   2 C2            -0.1630     0.0309     0.0695 C.ar    
   3 C3             1.0202    -0.6904     0.1747 C.ar    
   4 C4             2.2264    -0.0239     0.2407 C.ar    
   5 C5             2.2696     1.3796     0.2037 C.ar    
   6 C6             1.0808     2.0984     0.1019 C.ar    
   7 O7             0.9892    -2.0490     0.2128 O.3     
   8 C8            -0.2954    -2.6708     0.1403 C.3     
   9 N9             0.9993     3.4927     0.0682 N.pl3   
  10 C10            3.6025     2.0083     0.2733 C.2     
  11 N11            3.8004     3.1494     0.9554 N.am    
  12 C12            2.8590     4.0050     1.7079 C.3     
  13 O13            4.5396     1.4845    -0.2975 O.2     
  14 N14            0.2928     5.4838    -0.4481 N.2     
  15 C15            0.1260     4.2163    -0.6926 C.2     
  16 C16            1.7368     4.3913     0.7762 C.2     
  17 C17            1.2873     5.6327     0.4681 C.2     
  18 C18            1.7827     6.9033     1.0209 C.2     
  19 O19            1.4913     7.2271     2.1556 O.2     
  20 O20            2.5597     7.7081     0.2689 O.3     
  21 C21            3.0121     8.9456     0.8791 C.3     
  22 C22            3.8372     8.6269     2.1274 C.3     
  23 C23            3.8752     9.7204    -0.1187 C.3     
  24 C24            1.8004     9.7935     1.2714 C.3     
  25 C25            3.9363     5.0646     1.8880 C.3     
  26 C26            4.8926     4.0745     1.2227 C.3     
  27 H27           -1.0557     1.9581    -0.0529 H       
  28 H28           -1.1084    -0.4885     0.0163 H       
  29 H29            3.1451    -0.5860     0.3220 H       
  30 H30           -0.1777    -3.7537     0.1808 H       
  31 H31           -0.9070    -2.3402     0.9798 H       
  32 H32           -0.7814    -2.3929    -0.7949 H       
  33 H33            2.5156     3.5648     2.6440 H       
  34 H34           -0.5896     3.8022    -1.3875 H       
  35 H35            4.7004     8.0228     1.8480 H       
  36 H36            4.1768     9.5558     2.5855 H       
  37 H37            3.2223     8.0749     2.8383 H       
  38 H38            3.2874     9.9475    -1.0080 H       
  39 H39            4.2148    10.6494     0.3393 H       
  40 H40            4.7384     9.1164    -0.3982 H       
  41 H41            1.1855     9.2415     1.9822 H       
  42 H42            2.1400    10.7224     1.7294 H       
  43 H43            1.2126    10.0205     0.3820 H       
  44 H44            3.7643     5.9680     1.3029 H       
  45 H45            4.1765     5.2723     2.9307 H       
  46 H46            5.6331     3.6699     1.9126 H       
  47 H47            5.3479     4.4685     0.3141 H       
@<TRIPOS>BOND
   1    1    2 ar
   2    1    6 ar
   3    1   27 1
   4    2    3 ar
   5    2   28 1
   6    3    4 ar
   7    3    7 1
   8    4    5 ar
   9    4   29 1
  10    5    6 ar
  11    5   10 1
  12    6    9 1
  13    7    8 1
  14    8   30 1
  15    8   31 1
  16    8   32 1
  17    9   16 1
  18    9   15 1
  19   10   11 am
  20   10   13 2
  21   11   26 1
  22   11   12 1
  23   12   25 1
  24   12   16 1
  25   12   33 1
  26   14   15 2
  27   14   17 1
  28   15   34 1
  29   16   17 2
  30   17   18 1
  31   18   19 2
  32   18   20 1
  33   20   21 1
  34   21   22 1
  35   21   23 1
  36   21   24 1
  37   22   35 1
  38   22   36 1
  39   22   37 1
  40   23   38 1
  41   23   39 1
  42   23   40 1
  43   24   41 1
  44   24   42 1
  45   24   43 1
  46   25   26 1
  47   25   44 1
  48   25   45 1
  49   26   46 1
  50   26   47 1

#	End of record

