#	Name: ASD01028730
#	Creating user name:	WinNT
#	Creation time:	15. 06. 2019 18:58

#	Modifying user name:	WinNT
#	Modification time:	15. 06. 2019 18:58

#	Program:	/corina/corina34_cracker 3.40 0067  02.08.2006

@<TRIPOS>MOLECULE
ASD01028730
  39   41    0    0    0
SMALL
NO_CHARGES


@<TRIPOS>ATOM
   1 C1            -0.0184     1.5028     0.0103 C.2     
   2 C2             0.0021    -0.0041     0.0020 C.3     
   3 O3             1.0236     2.1234     0.0037 O.2     
   4 N4            -1.1946     2.1607     0.0195 N.am    
   5 N5            -1.2136     3.5616     0.0272 N.pl3   
   6 N6             4.8731    -1.8244     2.1386 N.ar    
   7 C7             5.0050    -2.0581     3.4210 C.ar    
   8 C8             3.9464    -1.8671     4.3148 C.ar    
   9 C9             2.7353    -1.4248     3.8517 C.ar    
  10 C10            2.6027    -1.1765     2.4733 C.ar    
  11 C11            1.3916    -0.7222     1.9265 C.ar    
  12 C12            1.3021    -0.4920     0.5875 C.ar    
  13 C13            2.3967    -0.7022    -0.2485 C.ar    
  14 C14            3.5851    -1.1429     0.2475 C.ar    
  15 C15            3.7173    -1.3915     1.6246 C.ar    
  16 O16            4.1186    -2.1199     5.6390 O.3     
  17 C17            5.4081    -2.5788     6.0496 C.3     
  18 F18           -1.0647    -0.4891     0.7662 F       
  19 F19           -0.1191    -0.4649    -1.3134 F       
  20 C20           -2.4285     4.2411     0.0366 C.ar    
  21 C21           -2.4402     5.6344     0.0442 C.ar    
  22 C22           -3.6558     6.2968     0.0531 C.ar    
  23 C23           -4.8223     5.5411     0.0541 C.ar    
  24 C24           -4.7353     4.1630     0.0462 C.ar    
  25 N25           -3.5618     3.5582     0.0328 N.ar    
  26 F26           -1.2815     6.3291     0.0434 F       
  27 Cl27          -6.3729     6.3217     0.0657 Cl      
  28 H28           -2.0280     1.6644     0.0207 H       
  29 H29           -0.3802     4.0579     0.0259 H       
  30 H30            5.9551    -2.4074     3.7974 H       
  31 H31            1.9055    -1.2715     4.5258 H       
  32 H32            0.5362    -0.5560     2.5645 H       
  33 H33            2.3004    -0.5128    -1.3074 H       
  34 H34            4.4234    -1.3013    -0.4147 H       
  35 H35            5.6400    -3.5142     5.5403 H       
  36 H36            6.1584    -1.8304     5.7943 H       
  37 H37            5.4096    -2.7419     7.1273 H       
  38 H38           -3.6968     7.3760     0.0596 H       
  39 H39           -5.6392     3.5720     0.0470 H       
@<TRIPOS>BOND
   1    1    2 1
   2    1    3 2
   3    1    4 am
   4    2   12 1
   5    2   18 1
   6    2   19 1
   7    4    5 1
   8    4   28 1
   9    5   20 1
  10    5   29 1
  11    6    7 ar
  12    6   15 ar
  13    7    8 ar
  14    7   30 1
  15    8    9 ar
  16    8   16 1
  17    9   10 ar
  18    9   31 1
  19   10   11 ar
  20   10   15 ar
  21   11   12 ar
  22   11   32 1
  23   12   13 ar
  24   13   14 ar
  25   13   33 1
  26   14   15 ar
  27   14   34 1
  28   16   17 1
  29   17   35 1
  30   17   36 1
  31   17   37 1
  32   20   21 ar
  33   20   25 ar
  34   21   22 ar
  35   21   26 1
  36   22   23 ar
  37   22   38 1
  38   23   24 ar
  39   23   27 1
  40   24   25 ar
  41   24   39 1

#	End of record

