#	Name: ASD01913157
#	Creating user name:	WinNT
#	Creation time:	15. 06. 2019 20:01

#	Modifying user name:	WinNT
#	Modification time:	15. 06. 2019 20:01

#	Program:	/corina/corina34_cracker 3.40 0067  02.08.2006

@<TRIPOS>MOLECULE
ASD01913157
  48   50    0    0    0
SMALL
NO_CHARGES


@<TRIPOS>ATOM
   1 C1            -0.0167     1.3803     0.0096 C.ar    
   2 C2             0.0021    -0.0041     0.0020 C.ar    
   3 C3            -1.1844    -0.7117     0.0100 C.ar    
   4 C4            -2.3949    -0.0345     0.0257 C.ar    
   5 C5            -2.4122     1.3524     0.0333 C.ar    
   6 C6            -1.2242     2.0574     0.0306 C.ar    
   7 O7            -3.5632    -0.7296     0.0331 O.3     
   8 C8            -4.7717     0.0329     0.0492 C.3     
   9 C9            -5.9727    -0.9149     0.0555 C.3     
  10 C10           -7.2471    -0.1107     0.0725 C.2     
  11 N11           -8.4399    -0.7383     0.0806 N.am    
  12 C12           -9.6956     0.0274     0.0972 C.3     
  13 C13          -10.5963    -0.4905    -1.0292 C.3     
  14 N14          -10.7538    -1.9450    -0.8964 N.3     
  15 C15           -9.4673    -2.6367    -1.0524 C.3     
  16 C16           -8.5203    -2.2068     0.0668 C.3     
  17 O17           -7.1994     1.1011     0.0789 O.2     
  18 C18          -11.6970    -2.4313    -1.8047 C.ar    
  19 C19          -11.9935    -3.7879    -1.8409 C.ar    
  20 C20          -12.9269    -4.2653    -2.7398 C.ar    
  21 C21          -13.5661    -3.3946    -3.6032 C.ar    
  22 C22          -13.2733    -2.0435    -3.5698 C.ar    
  23 C23          -12.3447    -1.5586    -2.6698 C.ar    
  24 F24            1.1443     2.0711     0.0023 F       
  25 C25          -14.5837    -3.9193    -4.5831 C.3     
  26 F26          -15.8526    -3.8974    -3.9943 F       
  27 F27          -14.5868    -3.1150    -5.7278 F       
  28 F28          -14.2564    -5.2326    -4.9370 F       
  29 H29            0.9447    -0.5310    -0.0105 H       
  30 H30           -1.1695    -1.7915     0.0037 H       
  31 H31           -3.3541     1.8808     0.0451 H       
  32 H32           -1.2374     3.1373     0.0369 H       
  33 H33           -4.7960     0.6563     0.9430 H       
  34 H34           -4.8134     0.6664    -0.8368 H       
  35 H35           -5.9483    -1.5382    -0.8383 H       
  36 H36           -5.9310    -1.5484     0.9415 H       
  37 H37          -10.1945    -0.1084     1.0567 H       
  38 H38           -9.4820     1.0844    -0.0614 H       
  39 H39          -11.5731    -0.0113    -0.9632 H       
  40 H40          -10.1423    -0.2603    -1.9930 H       
  41 H41           -9.6253    -3.7141    -1.0032 H       
  42 H42           -9.0290    -2.3766    -2.0159 H       
  43 H43           -7.5304    -2.6277    -0.1092 H       
  44 H44           -8.9044    -2.5555     1.0255 H       
  45 H45          -11.4944    -4.4685    -1.1670 H       
  46 H46          -13.1576    -5.3200    -2.7687 H       
  47 H47          -13.7743    -1.3662    -4.2455 H       
  48 H48          -12.1168    -0.5033    -2.6440 H       
@<TRIPOS>BOND
   1    1    2 ar
   2    1   24 1
   3    1    6 ar
   4    2    3 ar
   5    2   29 1
   6    3    4 ar
   7    3   30 1
   8    4    5 ar
   9    4    7 1
  10    5    6 ar
  11    5   31 1
  12    6   32 1
  13    7    8 1
  14    8    9 1
  15    8   33 1
  16    8   34 1
  17    9   10 1
  18    9   35 1
  19    9   36 1
  20   10   11 am
  21   10   17 2
  22   11   12 1
  23   11   16 1
  24   12   13 1
  25   12   37 1
  26   12   38 1
  27   13   14 1
  28   13   39 1
  29   13   40 1
  30   14   15 1
  31   14   18 1
  32   15   16 1
  33   15   41 1
  34   15   42 1
  35   16   43 1
  36   16   44 1
  37   18   19 ar
  38   18   23 ar
  39   19   20 ar
  40   19   45 1
  41   20   21 ar
  42   20   46 1
  43   21   22 ar
  44   21   25 1
  45   22   23 ar
  46   22   47 1
  47   23   48 1
  48   25   26 1
  49   25   27 1
  50   25   28 1

#	End of record

