#	Name: ASD08070149
#	Creating user name:	WinNT
#	Creation time:	15. 06. 2019 21:14

#	Modifying user name:	WinNT
#	Modification time:	15. 06. 2019 21:14

#	Program:	/corina/corina34_cracker 3.40 0067  02.08.2006

@<TRIPOS>MOLECULE
ASD08070149
  37   39    0    0    0
SMALL
NO_CHARGES


@<TRIPOS>ATOM
   1 C1            -0.0167     1.3808     0.0096 C.ar    
   2 C2             0.0021    -0.0041     0.0020 C.ar    
   3 C3             1.2035    -0.6865    -0.0126 C.ar    
   4 C4             2.4012     0.0145    -0.0203 C.ar    
   5 C5             2.3854     1.4157    -0.0131 C.ar    
   6 C6             1.1635     2.0925     0.0022 C.ar    
   7 O7             3.5819    -0.6538    -0.0342 O.3     
   8 N8             3.6327     3.5195    -0.0136 N.am    
   9 C9             3.6522     2.1719    -0.0206 C.2     
  10 C10            5.2624     3.3258    -2.2831 C.ar    
  11 C11            5.3680     4.4257    -1.4413 C.ar    
  12 C12            4.8906     4.2704    -0.0211 C.3     
  13 C13            5.6883     3.4020    -3.5928 C.ar    
  14 C14            6.2269     4.5818    -4.0720 C.ar    
  15 C15            6.3315     5.6755    -3.2380 C.ar    
  16 C16            5.8991     5.6021    -1.9199 C.ar    
  17 C17            6.0283     6.8385    -1.0694 C.3     
  18 C18            5.9260     6.4841     0.4127 C.3     
  19 C19            4.6651     5.6373     0.6220 C.3     
  20 O20            4.7139     1.5794    -0.0331 O.2     
  21 Cl21           1.2147    -2.4225    -0.0209 Cl      
  22 H22           -0.9607     1.9055     0.0169 H       
  23 H23           -0.9276    -0.5537     0.0079 H       
  24 H24            1.1437     3.1723     0.0075 H       
  25 H25            3.9161    -0.8433    -0.9216 H       
  26 H26            2.7857     3.9922    -0.0037 H       
  27 H27            4.8475     2.4020    -1.9077 H       
  28 H28            5.6392     3.7232     0.5519 H       
  29 H29            5.6018     2.5430    -4.2416 H       
  30 H30            6.5648     4.6468    -5.0957 H       
  31 H31            6.7534     6.5963    -3.6127 H       
  32 H32            6.9935     7.3073    -1.2610 H       
  33 H33            5.2325     7.5372    -1.3276 H       
  34 H34            6.8049     5.9150     0.7156 H       
  35 H35            5.8573     7.3970     1.0045 H       
  36 H36            3.8118     6.1273     0.1532 H       
  37 H37            4.4781     5.5147     1.6888 H       
@<TRIPOS>BOND
   1    1    2 ar
   2    1    6 ar
   3    1   22 1
   4    2    3 ar
   5    2   23 1
   6    3    4 ar
   7    3   21 1
   8    4    5 ar
   9    4    7 1
  10    5    6 ar
  11    5    9 1
  12    6   24 1
  13    7   25 1
  14    8    9 am
  15    8   12 1
  16    8   26 1
  17    9   20 2
  18   10   11 ar
  19   10   13 ar
  20   10   27 1
  21   11   12 1
  22   11   16 ar
  23   12   19 1
  24   12   28 1
  25   13   14 ar
  26   13   29 1
  27   14   15 ar
  28   14   30 1
  29   15   16 ar
  30   15   31 1
  31   16   17 1
  32   17   18 1
  33   17   32 1
  34   17   33 1
  35   18   19 1
  36   18   34 1
  37   18   35 1
  38   19   36 1
  39   19   37 1

#	End of record

