#	Name: ASD08170348
#	Creating user name:	WinNT
#	Creation time:	15. 06. 2019 21:17

#	Modifying user name:	WinNT
#	Modification time:	15. 06. 2019 21:17

#	Program:	/corina/corina34_cracker 3.40 0067  02.08.2006

@<TRIPOS>MOLECULE
ASD08170348
  75   78    0    0    0
SMALL
NO_CHARGES


@<TRIPOS>ATOM
   1 C1             1.6053     1.3411     1.4311 C.ar    
   2 C2             1.4331    -0.0270     1.3533 C.ar    
   3 C3             2.5341    -0.8620     1.2984 C.ar    
   4 C4             3.8106    -0.3307     1.3217 C.ar    
   5 C5             3.9899     1.0365     1.3999 C.ar    
   6 C6             2.8861     1.8781     1.4543 C.ar    
   7 C7             2.3423    -2.3543     1.2135 C.3     
   8 C8             2.2697    -2.7699    -0.2332 C.2     
   9 N9             2.0997    -4.0679    -0.5537 N.am    
  10 C10            2.0327    -4.4515    -1.8888 C.2     
  11 S11            1.8204    -6.0533    -2.4581 S.3     
  12 C12            1.8751    -5.4504    -4.1150 C.2     
  13 N13            2.0398    -4.1667    -4.0620 N.2     
  14 N14            2.1151    -3.6540    -2.9107 N.2     
  15 O15            2.3644    -1.9364    -1.1091 O.2     
  16 C16            1.7527    -6.2799    -5.3672 C.3     
  17 C17            3.1421    -6.7428    -5.8100 C.3     
  18 C18            3.0179    -7.5850    -7.0814 C.3     
  19 C19            4.4073    -8.0479    -7.5242 C.3     
  20 C20            4.2849    -8.8774    -8.7764 C.2     
  21 N21            4.3267    -8.4258    -9.9885 N.2     
  22 S22            4.0748   -10.5757    -8.8332 S.3     
  23 C23            4.0563   -10.5112   -10.5441 C.2     
  24 N24            4.2063    -9.2797   -10.9125 N.2     
  25 C25            3.8973   -11.6920   -11.4669 C.3     
  26 C26            5.2545   -12.2584   -11.7963 C.2     
  27 O27            6.2482   -11.7551   -11.3298 O.2     
  28 C28            5.3715   -13.4528   -12.7078 C.3     
  29 C29            6.8242   -13.8173   -12.8740 C.ar    
  30 C30            7.4144   -14.7145   -12.0028 C.ar    
  31 C31            7.5626   -13.2583   -13.9009 C.ar    
  32 C32            8.8942   -13.5902   -14.0561 C.ar    
  33 C33            9.4916   -14.4868   -13.1793 C.ar    
  34 C34            8.7455   -15.0508   -12.1523 C.ar    
  35 N35           10.8381   -14.8247   -13.3334 N.pl3   
  36 N36            3.0639     3.2613     1.5334 N.pl3   
  37 C37            4.4101     3.8195     1.6821 C.3     
  38 C38           11.5876   -14.3366   -14.4937 C.3     
  39 C39            1.9040     4.1538     1.4677 C.3     
  40 C40           11.5008   -15.6672   -12.3348 C.3     
  41 H41            0.7450     1.9929     1.4695 H       
  42 H42            0.4375    -0.4452     1.3356 H       
  43 H43            4.6683    -0.9856     1.2790 H       
  44 H44            4.9871     1.4507     1.4188 H       
  45 H45            3.1820    -2.8564     1.6941 H       
  46 H46            1.4165    -2.6309     1.7179 H       
  47 H47            2.0240    -4.7346     0.1468 H       
  48 H48            1.1266    -7.1494    -5.1673 H       
  49 H49            1.3005    -5.6805    -6.1573 H       
  50 H50            3.7682    -5.8733    -6.0100 H       
  51 H51            3.5944    -7.3422    -5.0199 H       
  52 H52            2.3918    -8.4545    -6.8814 H       
  53 H53            2.5657    -6.9856    -7.8715 H       
  54 H54            5.0334    -7.1784    -7.7242 H       
  55 H55            4.8595    -8.6473    -6.7341 H       
  56 H56            3.2935   -12.4565   -10.9780 H       
  57 H57            3.4046   -11.3719   -12.3850 H       
  58 H58            4.8328   -14.2951   -12.2738 H       
  59 H59            4.9440   -13.2105   -13.6807 H       
  60 H60            6.8338   -15.1524   -11.2043 H       
  61 H61            7.0974   -12.5615   -14.5825 H       
  62 H62            9.4702   -13.1535   -14.8585 H       
  63 H63            9.2070   -15.7480   -11.4686 H       
  64 H64            4.8377     4.0044     0.6967 H       
  65 H65            4.3558     4.7565     2.2363 H       
  66 H66            5.0386     3.1128     2.2241 H       
  67 H67           12.0445   -13.3766   -14.2534 H       
  68 H68           12.3658   -15.0549   -14.7519 H       
  69 H69           10.9102   -14.2152   -15.3390 H       
  70 H70            0.9897     3.5606     1.4479 H       
  71 H71            1.8961     4.8043     2.3423 H       
  72 H72            1.9631     4.7605     0.5641 H       
  73 H73           10.8191   -15.8509   -11.5044 H       
  74 H74           11.7830   -16.6166   -12.7900 H       
  75 H75           12.3933   -15.1611   -11.9671 H       
@<TRIPOS>BOND
   1    1    2 ar
   2    1    6 ar
   3    1   41 1
   4    2    3 ar
   5    2   42 1
   6    3    4 ar
   7    3    7 1
   8    4    5 ar
   9    4   43 1
  10    5    6 ar
  11    5   44 1
  12    6   36 1
  13    7    8 1
  14    7   45 1
  15    7   46 1
  16    8    9 am
  17    8   15 2
  18    9   10 1
  19    9   47 1
  20   10   11 1
  21   10   14 2
  22   11   12 1
  23   12   13 2
  24   12   16 1
  25   13   14 1
  26   16   17 1
  27   16   48 1
  28   16   49 1
  29   17   18 1
  30   17   50 1
  31   17   51 1
  32   18   19 1
  33   18   52 1
  34   18   53 1
  35   19   20 1
  36   19   54 1
  37   19   55 1
  38   20   21 2
  39   20   22 1
  40   21   24 1
  41   22   23 1
  42   23   24 2
  43   23   25 1
  44   25   26 1
  45   25   56 1
  46   25   57 1
  47   26   27 2
  48   26   28 1
  49   28   29 1
  50   28   58 1
  51   28   59 1
  52   29   30 ar
  53   29   31 ar
  54   30   34 ar
  55   30   60 1
  56   31   32 ar
  57   31   61 1
  58   32   33 ar
  59   32   62 1
  60   33   34 ar
  61   33   35 1
  62   34   63 1
  63   35   38 1
  64   35   40 1
  65   36   37 1
  66   36   39 1
  67   37   64 1
  68   37   65 1
  69   37   66 1
  70   38   67 1
  71   38   68 1
  72   38   69 1
  73   39   70 1
  74   39   71 1
  75   39   72 1
  76   40   73 1
  77   40   74 1
  78   40   75 1

#	End of record

