#	Name: ASD00311444
#	Creating user name:	WinNT
#	Creation time:	15. 06. 2019 18:34

#	Modifying user name:	WinNT
#	Modification time:	15. 06. 2019 18:34

#	Program:	/corina/corina34_cracker 3.40 0067  02.08.2006

@<TRIPOS>MOLECULE
ASD00311444
  46   50    0    0    0
SMALL
NO_CHARGES


@<TRIPOS>ATOM
   1 C1            -0.0167     1.3777     0.0096 C.2     
   2 C2             0.0021    -0.0041     0.0020 C.2     
   3 C3             1.2588    -0.6767    -0.0136 C.2     
   4 C4             2.4315     0.0672    -0.0208 C.2     
   5 C5             2.3574     1.4751    -0.0125 C.2     
   6 N6             1.1648     2.0902     0.0022 N.am    
   7 C7            -1.3433    -0.5752     0.0118 C.2     
   8 C8            -2.3228     0.3262     0.0260 C.2     
   9 S9            -1.6792     1.9563     0.0358 S.3     
  10 O10            3.3822     2.1373    -0.0183 O.2     
  11 C11            3.7477    -0.6121    -0.0365 C.ar    
  12 C12            4.5934    -0.4746    -1.1370 C.ar    
  13 C13            5.8183    -1.1100    -1.1457 C.ar    
  14 C14            6.2078    -1.8823    -0.0661 C.ar    
  15 C15            5.3733    -2.0225     1.0284 C.ar    
  16 C16            4.1486    -1.3871     1.0516 C.ar    
  17 O17            1.3087    -2.0292    -0.0209 O.3     
  18 C18           -2.0687    -4.7663    -0.0067 C.ar    
  19 C19           -2.7056    -3.9526     0.9302 C.ar    
  20 C20           -2.4709    -2.5956     0.9366 C.ar    
  21 C21           -1.5956    -2.0347     0.0056 C.ar    
  22 C22           -0.9586    -2.8492    -0.9316 C.ar    
  23 C23           -1.1939    -4.2060    -0.9373 C.ar    
  24 C24           -2.3170    -6.2283    -0.0093 C.ar    
  25 C25           -1.6820    -7.0441    -0.9443 C.ar    
  26 C26           -1.9170    -8.4040    -0.9420 C.ar    
  27 C27           -2.7811    -8.9577    -0.0145 C.ar    
  28 C28           -3.4144    -8.1529     0.9155 C.ar    
  29 C29           -3.1819    -6.7927     0.9269 C.ar    
  30 H30            1.1326     3.0597     0.0077 H       
  31 H31           -3.3754     0.0847     0.0347 H       
  32 H32            4.2901     0.1275    -1.9807 H       
  33 H33            6.4741    -1.0043    -1.9973 H       
  34 H34            7.1671    -2.3782    -0.0778 H       
  35 H35            5.6827    -2.6270     1.8681 H       
  36 H36            3.5000    -1.4933     1.9086 H       
  37 H37            2.2059    -2.3896    -0.0314 H       
  38 H38           -3.3832    -4.3867     1.6504 H       
  39 H39           -2.9643    -1.9656     1.6618 H       
  40 H40           -0.2809    -2.4155    -1.6521 H       
  41 H41           -0.7009    -4.8364    -1.6626 H       
  42 H42           -1.0078    -6.6127    -1.6693 H       
  43 H43           -1.4255    -9.0370    -1.6660 H       
  44 H44           -2.9622   -10.0224    -0.0166 H       
  45 H45           -4.0886    -8.5906     1.6368 H       
  46 H46           -3.6732    -6.1659     1.6565 H       
@<TRIPOS>BOND
   1    1    2 2
   2    1    6 1
   3    1    9 1
   4    2    3 1
   5    2    7 1
   6    3    4 2
   7    3   17 1
   8    4    5 1
   9    4   11 1
  10    5    6 am
  11    5   10 2
  12    6   30 1
  13    7    8 2
  14    7   21 1
  15    8    9 1
  16    8   31 1
  17   11   12 ar
  18   11   16 ar
  19   12   13 ar
  20   12   32 1
  21   13   14 ar
  22   13   33 1
  23   14   15 ar
  24   14   34 1
  25   15   16 ar
  26   15   35 1
  27   16   36 1
  28   17   37 1
  29   18   19 ar
  30   18   23 ar
  31   18   24 1
  32   19   20 ar
  33   19   38 1
  34   20   21 ar
  35   20   39 1
  36   21   22 ar
  37   22   23 ar
  38   22   40 1
  39   23   41 1
  40   24   25 ar
  41   24   29 ar
  42   25   26 ar
  43   25   42 1
  44   26   27 ar
  45   26   43 1
  46   27   28 ar
  47   27   44 1
  48   28   29 ar
  49   28   45 1
  50   29   46 1

#	End of record

