#	Name: ASD03240973
#	Creating user name:	WinNT
#	Creation time:	15. 06. 2019 20:35

#	Modifying user name:	WinNT
#	Modification time:	15. 06. 2019 20:35

#	Program:	/corina/corina34_cracker 3.40 0067  02.08.2006

@<TRIPOS>MOLECULE
ASD03240973
  68   74    0    0    0
SMALL
NO_CHARGES


@<TRIPOS>ATOM
   1 C1            -0.0188     1.5336     0.0105 C.3     
   2 C2             0.0021    -0.0041     0.0020 C.3     
   3 C3             1.3815     0.0967    -0.6702 C.3     
   4 C4             1.5179     1.4762    -0.0045 C.3     
   5 O5            -0.5818     2.1049    -1.1721 O.3     
   6 C6            -0.5973     2.1316     1.2944 C.3     
   7 C7            -0.5730     3.6586     1.2019 C.3     
   8 C8            -2.0398     1.6545     1.4745 C.3     
   9 C9             2.3746    -0.9181    -0.1653 C.ar    
  10 C10            3.3681    -1.3872    -1.0061 C.ar    
  11 C11            4.2807    -2.3160    -0.5495 C.ar    
  12 C12            4.2000    -2.7820     0.7628 C.ar    
  13 C13            3.1960    -2.3051     1.6056 C.ar    
  14 C14            2.2926    -1.3725     1.1389 C.ar    
  15 N15            6.9708    -6.5925    -0.0339 N.pl3   
  16 C16            7.8725    -7.5239     0.4048 C.2     
  17 N17            8.3293    -7.5334     1.6696 N.2     
  18 C18            7.9387    -6.6531     2.5548 C.2     
  19 C19            6.9763    -5.6270     2.1591 C.ar    
  20 C20            6.5203    -4.6593     3.0606 C.ar    
  21 C21            5.6043    -3.7197     2.5995 C.ar    
  22 C22            5.1759    -3.7791     1.2589 C.ar    
  23 N23            5.6297    -4.7109     0.4342 N.ar    
  24 C24            6.5012    -5.6222     0.8304 C.ar    
  25 C25            8.1507    -8.3509    -0.6752 C.2     
  26 C26            7.4046    -7.8994    -1.7566 C.2     
  27 N27            6.6985    -6.8600    -1.3810 N.2     
  28 C28            5.0842    -2.6698     3.5079 C.ar    
  29 C29            4.5762    -3.0159     4.7590 C.ar    
  30 C30            4.0938    -2.0343     5.6006 C.ar    
  31 C31            4.1137    -0.7090     5.2047 C.ar    
  32 C32            4.6162    -0.3596     3.9641 C.ar    
  33 C33            5.1065    -1.3321     3.1165 C.ar    
  34 C34            7.4026    -8.5083    -3.1351 C.3     
  35 C35            8.4964    -8.0605    -4.1068 C.3     
  36 C36            8.5477    -9.4593    -3.4890 C.3     
  37 N37            1.3186     0.1546    -2.1367 N.3     
  38 H38            0.0329    -0.4458     0.9980 H       
  39 H39           -0.7629    -0.4476    -0.6353 H       
  40 H40            1.9766     2.2276    -0.6471 H       
  41 H41            1.9632     1.4391     0.9897 H       
  42 H42           -0.5977     3.0718    -1.1727 H       
  43 H43            0.0010     1.8098     2.1469 H       
  44 H44           -0.9851     4.0847     2.1166 H       
  45 H45            0.4547     3.9986     1.0736 H       
  46 H46           -1.1712     3.9805     0.3495 H       
  47 H47           -2.0571     0.5666     1.5405 H       
  48 H48           -2.4519     2.0805     2.3892 H       
  49 H49           -2.6380     1.9763     0.6221 H       
  50 H50            3.4293    -1.0259    -2.0220 H       
  51 H51            5.0555    -2.6817    -1.2070 H       
  52 H52            3.1282    -2.6625     2.6226 H       
  53 H53            1.5173    -0.9995     1.7917 H       
  54 H54            8.3217    -6.6844     3.5641 H       
  55 H55            6.8690    -4.6421     4.0827 H       
  56 H56            8.8260    -9.1936    -0.6747 H       
  57 H57            4.5598    -4.0504     5.0690 H       
  58 H58            3.6997    -2.3013     6.5700 H       
  59 H59            3.7352     0.0559     5.8666 H       
  60 H60            4.6286     0.6766     3.6600 H       
  61 H61            5.5028    -1.0577     2.1500 H       
  62 H62            6.4191    -8.7275    -3.5507 H       
  63 H63            8.2326    -7.9856    -5.1617 H       
  64 H64            9.2174    -7.3255    -3.7489 H       
  65 H65            9.3025    -9.6446    -2.7247 H       
  66 H66            8.3176   -10.3046    -4.1375 H       
  67 H67            2.2430     0.2199    -2.5360 H       
  68 H68            0.8193    -0.6393    -2.5089 H       
@<TRIPOS>BOND
   1    1    2 1
   2    1    4 1
   3    1    5 1
   4    1    6 1
   5    2    3 1
   6    2   38 1
   7    2   39 1
   8    3    4 1
   9    3    9 1
  10    3   37 1
  11    4   40 1
  12    4   41 1
  13    5   42 1
  14    6    7 1
  15    6    8 1
  16    6   43 1
  17    7   44 1
  18    7   45 1
  19    7   46 1
  20    8   47 1
  21    8   48 1
  22    8   49 1
  23    9   10 ar
  24    9   14 ar
  25   10   11 ar
  26   10   50 1
  27   11   12 ar
  28   11   51 1
  29   12   13 ar
  30   12   22 1
  31   13   14 ar
  32   13   52 1
  33   14   53 1
  34   15   16 1
  35   15   24 1
  36   15   27 1
  37   16   17 1
  38   16   25 2
  39   17   18 2
  40   18   19 1
  41   18   54 1
  42   19   20 ar
  43   19   24 ar
  44   20   21 ar
  45   20   55 1
  46   21   22 ar
  47   21   28 1
  48   22   23 ar
  49   23   24 ar
  50   25   26 1
  51   25   56 1
  52   26   27 2
  53   26   34 1
  54   28   29 ar
  55   28   33 ar
  56   29   30 ar
  57   29   57 1
  58   30   31 ar
  59   30   58 1
  60   31   32 ar
  61   31   59 1
  62   32   33 ar
  63   32   60 1
  64   33   61 1
  65   34   35 1
  66   34   36 1
  67   34   62 1
  68   35   36 1
  69   35   63 1
  70   35   64 1
  71   36   65 1
  72   36   66 1
  73   37   67 1
  74   37   68 1

#	End of record

