#	Name: ASD08178080
#	Creating user name:	WinNT
#	Creation time:	15. 06. 2019 21:18

#	Modifying user name:	WinNT
#	Modification time:	15. 06. 2019 21:18

#	Program:	/corina/corina34_cracker 3.40 0067  02.08.2006

@<TRIPOS>MOLECULE
ASD08178080
  86   91    0    0    0
SMALL
NO_CHARGES


@<TRIPOS>ATOM
   1 N1             0.7199     0.6431    -0.1020 N.2     
   2 N2             0.9011    -0.6061    -0.0765 N.2     
   3 C3             1.6396     1.3747    -0.6552 C.2     
   4 S4             2.8936     0.3502    -1.2143 S.3     
   5 C5             1.9975    -1.0436    -0.6095 C.2     
   6 N6             1.6108     2.7600    -0.7743 N.am    
   7 C7             0.5627     3.4562    -0.2915 C.2     
   8 O8            -0.3554     2.8747     0.2469 O.2     
   9 C9             2.4299    -2.4846    -0.6973 C.3     
  10 C10            1.8259    -5.1686    -3.3912 C.3     
  11 C11            2.2583    -6.6096    -3.4789 C.2     
  12 N12            1.6001    -7.6330    -3.0352 N.2     
  13 S13            3.7482    -7.2060    -4.2111 S.3     
  14 C14            3.2838    -8.8047    -3.8073 C.2     
  15 N15            2.1333    -8.7646    -3.2057 N.2     
  16 N16            4.0151    -9.9552    -4.0823 N.am    
  17 C17            3.5397   -11.1606    -3.7114 C.2     
  18 O18            2.4742   -11.2420    -3.1378 O.2     
  19 C19            4.3322   -12.4073    -4.0094 C.3     
  20 C20            0.5315     4.9574    -0.4205 C.3     
  21 C21            1.9084    -3.0951    -1.9997 C.3     
  22 C22            2.3474    -4.5581    -2.0888 C.3     
  23 C23           -0.1167     5.3358    -1.7273 C.ar    
  24 C24            0.6554     5.8177    -2.7678 C.ar    
  25 C25            0.0609     6.1650    -3.9665 C.ar    
  26 C26           -1.3057     6.0298    -4.1249 C.ar    
  27 C27           -2.0777     5.5471    -3.0848 C.ar    
  28 C28           -1.4825     5.1958    -1.8875 C.ar    
  29 C29            5.2641   -12.6967    -2.8610 C.ar    
  30 C30            4.7606   -13.1765    -1.6663 C.ar    
  31 C31            6.6231   -12.4877    -3.0041 C.ar    
  32 C32            7.4779   -12.7531    -1.9506 C.ar    
  33 C33            6.9737   -13.2271    -0.7540 C.ar    
  34 C34            5.6155   -13.4419    -0.6129 C.ar    
  35 N35           -0.2394     5.5286     0.6919 N.3     
  36 C36           -0.3018     6.9934     0.5919 C.3     
  37 C37            0.3193     5.1152     1.9867 C.3     
  38 C38           -0.5563     5.6641     3.1157 C.3     
  39 N39           -0.6187     7.1289     3.0158 N.3     
  40 C40           -1.1774     7.5423     1.7209 C.3     
  41 N41            3.4139   -13.5393    -4.1920 N.3     
  42 C42            4.1492   -14.7631    -4.5403 C.3     
  43 C43            3.1677   -15.9329    -4.6434 C.3     
  44 N44            2.1497   -15.6268    -5.6581 N.3     
  45 C45            1.4144   -14.4030    -5.3098 C.3     
  46 C46            2.3959   -13.2332    -5.2067 C.3     
  47 H47            2.3451     3.2251    -1.2049 H       
  48 H48            3.5184    -2.5389    -0.6808 H       
  49 H49            2.0256    -3.0375     0.1506 H       
  50 H50            2.2302    -4.6157    -4.2391 H       
  51 H51            0.7374    -5.1142    -3.4076 H       
  52 H52            4.8673    -9.8902    -4.5411 H       
  53 H53            4.9127   -12.2598    -4.9201 H       
  54 H54            1.5496     5.3456    -0.3941 H       
  55 H55            0.8199    -3.0407    -2.0161 H       
  56 H56            2.3127    -2.5422    -2.8476 H       
  57 H57            1.9431    -5.1110    -1.2409 H       
  58 H58            3.4359    -4.6124    -2.0723 H       
  59 H59            1.7231     5.9233    -2.6440 H       
  60 H60            0.6641     6.5421    -4.7791 H       
  61 H61           -1.7702     6.3018    -5.0612 H       
  62 H62           -3.1454     5.4418    -3.2084 H       
  63 H63           -2.0857     4.8186    -1.0749 H       
  64 H64            3.6994   -13.3437    -1.5559 H       
  65 H65            7.0169   -12.1173    -3.9390 H       
  66 H66            8.5397   -12.5905    -2.0627 H       
  67 H67            7.6416   -13.4348     0.0690 H       
  68 H68            5.2216   -13.8122     0.3221 H       
  69 H69            0.7031     7.4069     0.6773 H       
  70 H70           -0.7304     7.2744    -0.3701 H       
  71 H71            0.3435     4.0269     2.0416 H       
  72 H72            1.3313     5.5074     2.0880 H       
  73 H73           -1.5612     5.2506     3.0303 H       
  74 H74           -0.1277     5.3832     4.0777 H       
  75 H75           -1.1481     7.5213     3.7798 H       
  76 H76           -1.2016     8.6306     1.6660 H       
  77 H77           -2.1894     7.1501     1.6197 H       
  78 H78            4.6524   -14.6251    -5.4973 H       
  79 H79            4.8883   -14.9755    -3.7678 H       
  80 H80            3.7069   -16.8358    -4.9300 H       
  81 H81            2.6845   -16.0882    -3.6788 H       
  82 H82            2.5643   -15.5510    -6.5748 H       
  83 H83            0.6753   -14.1906    -6.0823 H       
  84 H84            0.9112   -14.5410    -4.3528 H       
  85 H85            1.8567   -12.3303    -4.9201 H       
  86 H86            2.8791   -13.0778    -6.1713 H       
@<TRIPOS>BOND
   1    1    2 1
   2    1    3 2
   3    2    5 2
   4    3    4 1
   5    3    6 1
   6    4    5 1
   7    5    9 1
   8    6    7 am
   9    6   47 1
  10    7    8 2
  11    7   20 1
  12    9   21 1
  13    9   48 1
  14    9   49 1
  15   10   11 1
  16   10   22 1
  17   10   50 1
  18   10   51 1
  19   11   12 2
  20   11   13 1
  21   12   15 1
  22   13   14 1
  23   14   15 2
  24   14   16 1
  25   16   17 am
  26   16   52 1
  27   17   18 2
  28   17   19 1
  29   19   41 1
  30   19   29 1
  31   19   53 1
  32   20   35 1
  33   20   23 1
  34   20   54 1
  35   21   22 1
  36   21   55 1
  37   21   56 1
  38   22   57 1
  39   22   58 1
  40   23   24 ar
  41   23   28 ar
  42   24   25 ar
  43   24   59 1
  44   25   26 ar
  45   25   60 1
  46   26   27 ar
  47   26   61 1
  48   27   28 ar
  49   27   62 1
  50   28   63 1
  51   29   30 ar
  52   29   31 ar
  53   30   34 ar
  54   30   64 1
  55   31   32 ar
  56   31   65 1
  57   32   33 ar
  58   32   66 1
  59   33   34 ar
  60   33   67 1
  61   34   68 1
  62   35   36 1
  63   35   37 1
  64   36   40 1
  65   36   69 1
  66   36   70 1
  67   37   38 1
  68   37   71 1
  69   37   72 1
  70   38   39 1
  71   38   73 1
  72   38   74 1
  73   39   40 1
  74   39   75 1
  75   40   76 1
  76   40   77 1
  77   41   42 1
  78   41   46 1
  79   42   43 1
  80   42   78 1
  81   42   79 1
  82   43   44 1
  83   43   80 1
  84   43   81 1
  85   44   45 1
  86   44   82 1
  87   45   46 1
  88   45   83 1
  89   45   84 1
  90   46   85 1
  91   46   86 1

#	End of record

