#	Name: ASD01890232
#	Creating user name:	WinNT
#	Creation time:	15. 06. 2019 19:50

#	Modifying user name:	WinNT
#	Modification time:	15. 06. 2019 19:50

#	Program:	/corina/corina34_cracker 3.40 0067  02.08.2006

@<TRIPOS>MOLECULE
ASD01890232
  30   31    0    0    0
SMALL
NO_CHARGES


@<TRIPOS>ATOM
   1 C1            -0.0184     1.5028     0.0103 C.2     
   2 C2             0.0021    -0.0041     0.0020 C.3     
   3 C3             1.4513    -0.4944    -0.0145 C.3     
   4 O4             1.0234     2.1233     0.0037 O.2     
   5 C5            -1.3027     2.2212     0.0203 C.ar    
   6 C6            -1.3259     3.6195     0.0280 C.ar    
   7 C7            -2.5333     4.2853     0.0374 C.ar    
   8 C8            -3.7202     3.5735     0.0397 C.ar    
   9 C9            -3.7057     2.1896     0.0321 C.ar    
  10 C10           -2.5064     1.5092     0.0164 C.ar    
  11 C11            1.4717    -2.0012    -0.0227 C.ar    
  12 C12            1.4697    -2.6856    -1.2240 C.ar    
  13 C13            1.4889    -4.0684    -1.2320 C.ar    
  14 C14            1.5102    -4.7668    -0.0364 C.ar    
  15 C15            1.5122    -4.0806     1.1644 C.ar    
  16 C16            1.4983    -2.6982     1.1706 C.ar    
  17 Cl17           1.5337    -6.5026    -0.0447 Cl      
  18 Cl18           1.4857    -4.9283    -2.7401 Cl      
  19 H19           -0.4983    -0.3791     0.8948 H       
  20 H20           -0.5153    -0.3696    -0.8850 H       
  21 H21            1.9516    -0.1193    -0.9073 H       
  22 H22            1.9686    -0.1289     0.8726 H       
  23 H23           -0.4005     4.1764     0.0270 H       
  24 H24           -2.5529     5.3652     0.0434 H       
  25 H25           -4.6628     4.1007     0.0478 H       
  26 H26           -4.6360     1.6411     0.0339 H       
  27 H27           -2.4967     0.4293     0.0055 H       
  28 H28            1.4527    -2.1403    -2.1561 H       
  29 H29            1.5288    -4.6246     2.0973 H       
  30 H30            1.5040    -2.1626     2.1084 H       
@<TRIPOS>BOND
   1    1    2 1
   2    1    4 2
   3    1    5 1
   4    2    3 1
   5    2   19 1
   6    2   20 1
   7    3   11 1
   8    3   21 1
   9    3   22 1
  10    5    6 ar
  11    5   10 ar
  12    6    7 ar
  13    6   23 1
  14    7    8 ar
  15    7   24 1
  16    8    9 ar
  17    8   25 1
  18    9   10 ar
  19    9   26 1
  20   10   27 1
  21   11   12 ar
  22   11   16 ar
  23   12   13 ar
  24   12   28 1
  25   13   14 ar
  26   13   18 1
  27   14   15 ar
  28   14   17 1
  29   15   16 ar
  30   15   29 1
  31   16   30 1

#	End of record

