#	Name: ASD03240196
#	Creating user name:	WinNT
#	Creation time:	15. 06. 2019 20:34

#	Modifying user name:	WinNT
#	Modification time:	15. 06. 2019 20:34

#	Program:	/corina/corina34_cracker 3.40 0067  02.08.2006

@<TRIPOS>MOLECULE
ASD03240196
 102  107    0    0    0
SMALL
NO_CHARGES


@<TRIPOS>ATOM
   1 C1             0.1415     1.3463     0.0694 C.ar    
   2 C2            -0.9864     1.7351    -0.6427 C.ar    
   3 C3            -0.9714     2.9239    -1.3862 C.ar    
   4 C4             0.1729     3.7103    -1.4080 C.ar    
   5 C5             1.3013     3.3127    -0.6896 C.ar    
   6 C6             1.2770     2.1256     0.0485 C.ar    
   7 C7             2.5203     4.1447    -0.7098 C.2     
   8 O8             2.5414     5.1768    -1.3525 O.2     
   9 N9             3.6099     3.7605    -0.0159 N.am    
  10 C10            4.7960     4.5001    -0.1086 C.ar    
  11 C11            4.7446     5.8828    -0.2261 C.ar    
  12 C12            5.9135     6.6118    -0.3170 C.ar    
  13 C13            7.1409     5.9622    -0.2910 C.ar    
  14 C14            7.1921     4.5792    -0.1735 C.ar    
  15 C15            6.0232     3.8509    -0.0773 C.ar    
  16 N16            8.3254     6.7008    -0.3836 N.pl3   
  17 C17            9.6199     6.0155    -0.3562 C.3     
  18 C18            8.2713     8.1595    -0.5080 C.3     
  19 C19           10.0293     5.6585    -1.7619 C.ar    
  20 C20           10.7767     6.5479    -2.5111 C.ar    
  21 C21           11.1521     6.2205    -3.8005 C.ar    
  22 C22           10.7805     5.0035    -4.3407 C.ar    
  23 C23           10.0338     4.1137    -3.5912 C.ar    
  24 C24            9.6621     4.4393    -2.3002 C.ar    
  25 C25            8.2873     8.7816     0.8644 C.ar    
  26 C26            9.4906     9.1085     1.4611 C.ar    
  27 C27            9.5053     9.6792     2.7201 C.ar    
  28 C28            8.3166     9.9233     3.3822 C.ar    
  29 C29            7.1132     9.5972     2.7851 C.ar    
  30 C30            7.0984     9.0306     1.5244 C.ar    
  31 C31            8.3327    10.5445     4.7551 C.3     
  32 C32            7.5648    11.8676     4.7253 C.3     
  33 C33            7.6702     9.5928     5.7533 C.3     
  34 C34           11.1889     4.6470    -5.7468 C.3     
  35 C35           12.0420     3.3770    -5.7236 C.3     
  36 C36            9.9389     4.4062    -6.5954 C.3     
  37 C37           -2.1740     3.3398    -2.1476 C.ar    
  38 C38           -2.6621     4.6257    -2.0088 C.ar    
  39 C39           -3.8004     5.0138    -2.7323 C.ar    
  40 C40           -4.4313     4.0811    -3.5938 C.ar    
  41 C41           -3.9094     2.7803    -3.7125 C.ar    
  42 C42           -2.8040     2.4257    -3.0080 C.ar    
  43 C43           -4.3272     6.3126    -2.6176 C.ar    
  44 C44           -5.4327     6.6567    -3.3329 C.ar    
  45 C45           -6.0527     5.7397    -4.1797 C.ar    
  46 C46           -5.5708     4.4740    -4.3159 C.ar    
  47 N47           -2.1322     0.9437    -0.6184 N.am    
  48 C48           -2.0253    -0.3927    -0.4807 C.2     
  49 C49           -3.2553    -1.2595    -0.5631 C.3     
  50 O50           -0.9392    -0.8978    -0.2905 O.2     
  51 N51           -2.8765    -2.6632    -0.3833 N.pl3   
  52 C52           -3.8384    -3.6449    -0.4196 C.2     
  53 N53           -5.0873    -3.3266    -0.6141 N.2     
  54 N54           -3.4829    -4.9622    -0.2509 N.pl3   
  55 H55            0.1263     0.4324     0.6447 H       
  56 H56            0.1896     4.6266    -1.9795 H       
  57 H57            2.1508     1.8191     0.6044 H       
  58 H58            3.5729     2.9720     0.5477 H       
  59 H59            3.7902     6.3879    -0.2467 H       
  60 H60            5.8736     7.6872    -0.4088 H       
  61 H61            8.1464     4.0739    -0.1536 H       
  62 H62            6.0630     2.7755     0.0144 H       
  63 H63           10.3696     6.6725     0.0848 H       
  64 H64            9.5374     5.1067     0.2401 H       
  65 H65            9.1344     8.5080    -1.0751 H       
  66 H66            7.3562     8.4462    -1.0263 H       
  67 H67           11.0670     7.4987    -2.0891 H       
  68 H68           11.7354     6.9156    -4.3861 H       
  69 H69            9.7432     3.1631    -4.0133 H       
  70 H70            9.0788     3.7442    -1.7146 H       
  71 H71           10.4193     8.9178     0.9438 H       
  72 H72           10.4454     9.9340     3.1866 H       
  73 H73            6.1846     9.7877     3.3026 H       
  74 H74            6.1582     8.7758     1.0579 H       
  75 H75            9.3632    10.7293     5.0583 H       
  76 H76            6.5343    11.6828     4.4221 H       
  77 H77            7.5764    12.3169     5.7183 H       
  78 H78            8.0367    12.5456     4.0142 H       
  79 H79            6.6397     9.4081     5.4501 H       
  80 H80            8.2172     8.6503     5.7746 H       
  81 H81            7.6818    10.0421     6.7463 H       
  82 H82           11.7672     5.4653    -6.1757 H       
  83 H83           11.4637     2.5587    -5.2947 H       
  84 H84           12.3374     3.1192    -6.7406 H       
  85 H85           12.9326     3.5486    -5.1190 H       
  86 H86            9.3311     5.3109    -6.6120 H       
  87 H87           10.2343     4.1483    -7.6125 H       
  88 H88            9.3606     3.5878    -6.1665 H       
  89 H89           -2.1717     5.3258    -1.3487 H       
  90 H90           -4.3853     2.0651    -4.3670 H       
  91 H91           -2.4088     1.4253    -3.1045 H       
  92 H92           -3.8572     7.0333    -1.9648 H       
  93 H93           -5.8355     7.6546    -3.2427 H       
  94 H94           -6.9290     6.0379    -4.7361 H       
  95 H95           -6.0621     3.7748    -4.9764 H       
  96 H96           -3.0072     1.3544    -0.7005 H       
  97 H97           -3.9572    -0.9695     0.2188 H       
  98 H98           -3.7250    -1.1320    -1.5384 H       
  99 H99           -1.9471    -2.9000    -0.2386 H       
 100 H100          -5.7660    -4.0192    -0.6397 H       
 101 H101          -2.5534    -5.1990    -0.1062 H       
 102 H102          -4.1615    -5.6548    -0.2765 H       
@<TRIPOS>BOND
   1    1    2 ar
   2    1    6 ar
   3    1   55 1
   4    2    3 ar
   5    2   47 1
   6    3    4 ar
   7    3   37 1
   8    4    5 ar
   9    4   56 1
  10    5    6 ar
  11    5    7 1
  12    6   57 1
  13    7    8 2
  14    7    9 am
  15    9   10 1
  16    9   58 1
  17   10   11 ar
  18   10   15 ar
  19   11   12 ar
  20   11   59 1
  21   12   13 ar
  22   12   60 1
  23   13   14 ar
  24   13   16 1
  25   14   15 ar
  26   14   61 1
  27   15   62 1
  28   16   17 1
  29   16   18 1
  30   17   19 1
  31   17   63 1
  32   17   64 1
  33   18   25 1
  34   18   65 1
  35   18   66 1
  36   19   20 ar
  37   19   24 ar
  38   20   21 ar
  39   20   67 1
  40   21   22 ar
  41   21   68 1
  42   22   23 ar
  43   22   34 1
  44   23   24 ar
  45   23   69 1
  46   24   70 1
  47   25   26 ar
  48   25   30 ar
  49   26   27 ar
  50   26   71 1
  51   27   28 ar
  52   27   72 1
  53   28   29 ar
  54   28   31 1
  55   29   30 ar
  56   29   73 1
  57   30   74 1
  58   31   32 1
  59   31   33 1
  60   31   75 1
  61   32   76 1
  62   32   77 1
  63   32   78 1
  64   33   79 1
  65   33   80 1
  66   33   81 1
  67   34   35 1
  68   34   36 1
  69   34   82 1
  70   35   83 1
  71   35   84 1
  72   35   85 1
  73   36   86 1
  74   36   87 1
  75   36   88 1
  76   37   38 ar
  77   37   42 ar
  78   38   39 ar
  79   38   89 1
  80   39   40 ar
  81   39   43 ar
  82   40   41 ar
  83   40   46 ar
  84   41   42 ar
  85   41   90 1
  86   42   91 1
  87   43   44 ar
  88   43   92 1
  89   44   45 ar
  90   44   93 1
  91   45   46 ar
  92   45   94 1
  93   46   95 1
  94   47   48 am
  95   47   96 1
  96   48   49 1
  97   48   50 2
  98   49   51 1
  99   49   97 1
 100   49   98 1
 101   51   52 1
 102   51   99 1
 103   52   53 2
 104   52   54 1
 105   53  100 1
 106   54  101 1
 107   54  102 1

#	End of record

