#	Name: ASD02198401
#	Creating user name:	WinNT
#	Creation time:	15. 06. 2019 20:19

#	Modifying user name:	WinNT
#	Modification time:	15. 06. 2019 20:19

#	Program:	/corina/corina34_cracker 3.40 0067  02.08.2006

@<TRIPOS>MOLECULE
ASD02198401
  42   45    0    0    0
SMALL
NO_CHARGES


@<TRIPOS>ATOM
   1 C1            -0.2106     1.0818    -0.3404 C.2     
   2 C2            -0.1182    -0.2634    -0.3573 C.2     
   3 S3             1.3998     1.7781    -0.2156 S.3     
   4 C4             2.1245     0.1759    -0.1928 C.2     
   5 C5             1.1675    -0.7540    -0.2759 C.2     
   6 S6             3.8515    -0.1540    -0.0777 S.o2    
   7 N7             4.4424    -0.2178    -1.6234 N.am    
   8 C8             4.3260     0.8909    -2.4604 C.ar    
   9 C9             4.0866     0.7152    -3.8416 C.ar    
  10 C10            3.9711     1.8553    -4.6741 C.ar    
  11 C11            4.0955     3.1389    -4.1204 C.ar    
  12 C12            4.3292     3.2817    -2.7711 C.ar    
  13 C13            4.4380     2.1619    -1.9438 C.ar    
  14 N14            3.9693    -0.5070    -4.3678 N.ar    
  15 C15            3.7476    -0.6803    -5.6480 C.ar    
  16 C16            3.6234     0.3971    -6.5226 C.ar    
  17 C17            3.7324     1.6738    -6.0502 C.ar    
  18 O18            4.4388     0.9886     0.5296 O.2     
  19 O19            3.9748    -1.4663     0.4534 O.2     
  20 C20           -1.4693     1.8517    -0.4206 C.2     
  21 N21           -2.6854     1.3682    -0.5195 N.2     
  22 C22           -1.6094     3.2696    -0.4002 C.2     
  23 C23           -2.9427     3.4664    -0.4980 C.2     
  24 O24           -3.5087     2.2525    -0.5647 O.3     
  25 C25           -3.6562     4.7936    -0.5228 C.3     
  26 F26           -3.7761     5.2340    -1.8452 F       
  27 F27           -4.9298     4.6489     0.0378 F       
  28 F28           -2.9251     5.7299     0.2161 F       
  29 O29            4.4492     4.5257    -2.2376 O.3     
  30 C30            4.3220     5.6311    -3.1342 C.3     
  31 H31           -0.9834    -0.9058    -0.4286 H       
  32 H32            1.3856    -1.8117    -0.2787 H       
  33 H33            4.8696    -1.0265    -1.9464 H       
  34 H34            4.0087     4.0117    -4.7506 H       
  35 H35            4.6210     2.2944    -0.8877 H       
  36 H36            3.6592    -1.6847    -6.0351 H       
  37 H37            3.4408     0.2229    -7.5727 H       
  38 H38            3.6390     2.5208    -6.7137 H       
  39 H39           -0.8307     4.0141    -0.3236 H       
  40 H40            5.0924     5.5663    -3.9025 H       
  41 H41            3.3383     5.6072    -3.6031 H       
  42 H42            4.4382     6.5630    -2.5808 H       
@<TRIPOS>BOND
   1    1    2 2
   2    1    3 1
   3    1   20 1
   4    2    5 1
   5    2   31 1
   6    3    4 1
   7    4    5 2
   8    4    6 1
   9    5   32 1
  10    6    7 am
  11    6   18 2
  12    6   19 2
  13    7    8 1
  14    7   33 1
  15    8    9 ar
  16    8   13 ar
  17    9   10 ar
  18    9   14 ar
  19   10   11 ar
  20   10   17 ar
  21   11   12 ar
  22   11   34 1
  23   12   13 ar
  24   12   29 1
  25   13   35 1
  26   14   15 ar
  27   15   16 ar
  28   15   36 1
  29   16   17 ar
  30   16   37 1
  31   17   38 1
  32   20   21 2
  33   20   22 1
  34   21   24 1
  35   22   23 2
  36   22   39 1
  37   23   24 1
  38   23   25 1
  39   25   26 1
  40   25   27 1
  41   25   28 1
  42   29   30 1
  43   30   40 1
  44   30   41 1
  45   30   42 1

#	End of record

