#	Name: ASD01812802
#	Creating user name:	WinNT
#	Creation time:	15. 06. 2019 19:29

#	Modifying user name:	WinNT
#	Modification time:	15. 06. 2019 19:29

#	Program:	/corina/corina34_cracker 3.40 0067  02.08.2006

@<TRIPOS>MOLECULE
ASD01812802
  55   59    0    0    0
SMALL
NO_CHARGES


@<TRIPOS>ATOM
   1 N1            -0.0158     1.3147     0.0093 N.ar    
   2 C2             0.0021    -0.0041     0.0020 C.ar    
   3 C3             1.1989    -0.7033    -0.0127 C.ar    
   4 C4             2.3829    -0.0013    -0.0202 C.ar    
   5 C5             2.3448     1.3978    -0.0128 C.ar    
   6 C6             1.0955     2.0332     0.0025 C.ar    
   7 C7             3.8373    -0.3889    -0.0363 C.3     
   8 N8             4.5955     0.8684    -0.0373 N.am    
   9 C9             3.7280     1.8961    -0.0237 C.2     
  10 C10            6.0558     0.9844    -0.0504 C.3     
  11 C11            6.5432     1.0311    -1.4757 C.ar    
  12 C12            6.6712     2.2480    -2.1206 C.ar    
  13 C13            7.1171     2.2967    -3.4259 C.ar    
  14 C14            7.4391     1.1168    -4.0938 C.ar    
  15 C15            7.3087    -0.1063    -3.4390 C.ar    
  16 C16            6.8664    -0.1428    -2.1321 C.ar    
  17 O17            1.0255     3.3856     0.0100 O.3     
  18 O18            4.0429     3.0706    -0.0212 O.2     
  19 C19           -0.2795     3.9677     0.0251 C.3     
  20 C20            7.9185     1.1627    -5.4972 C.ar    
  21 C21            8.0566     2.3770    -6.1739 C.ar    
  22 N22            8.4851     2.3841    -7.4205 N.ar    
  23 N23            8.7853     1.3065    -8.0485 N.ar    
  24 C24            8.6878     0.1123    -7.4943 C.ar    
  25 C25            8.2535    -0.0092    -6.1865 C.ar    
  26 C26            9.0551    -1.1175    -8.2841 C.3     
  27 C27           -0.1576     5.4928     0.0317 C.3     
  28 O28            0.4061     5.9406    -1.2066 O.3     
  29 C29           -0.5326     6.7798    -1.8980 C.3     
  30 C30           -1.4572     7.3488    -0.7925 C.3     
  31 C31           -1.5578     6.1295     0.1641 C.3     
  32 H32           -0.9309    -0.5480     0.0080 H       
  33 H33            1.2023    -1.7833    -0.0178 H       
  34 H34            4.0797    -0.9721     0.8522 H       
  35 H35            4.0624    -0.9631    -0.9351 H       
  36 H36            6.3524     1.8979     0.4651 H       
  37 H37            6.4932     0.1235     0.4552 H       
  38 H38            6.4213     3.1618    -1.6020 H       
  39 H39            7.2159     3.2473    -3.9287 H       
  40 H40            7.5569    -1.0237    -3.9519 H       
  41 H41            6.7686    -1.0899    -1.6224 H       
  42 H42           -0.8289     3.6509    -0.8614 H       
  43 H43           -0.8123     3.6419     0.9185 H       
  44 H44            7.8133     3.3052    -5.6783 H       
  45 H45            8.1717    -0.9768    -5.7138 H       
  46 H46           10.1128    -1.3386    -8.1414 H       
  47 H47            8.4578    -1.9620    -7.9402 H       
  48 H48            8.8602    -0.9416    -9.3420 H       
  49 H49            0.4741     5.8096     0.8615 H       
  50 H50           -0.0114     7.5893    -2.4091 H       
  51 H51           -1.1118     6.1925    -2.6105 H       
  52 H52           -0.9957     8.2016    -0.2948 H       
  53 H53           -2.4347     7.6134    -1.1957 H       
  54 H54           -2.3315     5.4378    -0.1690 H       
  55 H55           -1.7409     6.4542     1.1884 H       
@<TRIPOS>BOND
   1    1    2 ar
   2    1    6 ar
   3    2    3 ar
   4    2   32 1
   5    3    4 ar
   6    3   33 1
   7    4    7 1
   8    4    5 ar
   9    5    6 ar
  10    5    9 1
  11    6   17 1
  12    7    8 1
  13    7   34 1
  14    7   35 1
  15    8    9 am
  16    8   10 1
  17    9   18 2
  18   10   11 1
  19   10   36 1
  20   10   37 1
  21   11   12 ar
  22   11   16 ar
  23   12   13 ar
  24   12   38 1
  25   13   14 ar
  26   13   39 1
  27   14   15 ar
  28   14   20 1
  29   15   16 ar
  30   15   40 1
  31   16   41 1
  32   17   19 1
  33   19   27 1
  34   19   42 1
  35   19   43 1
  36   20   21 ar
  37   20   25 ar
  38   21   22 ar
  39   21   44 1
  40   22   23 ar
  41   23   24 ar
  42   24   25 ar
  43   24   26 1
  44   25   45 1
  45   26   46 1
  46   26   47 1
  47   26   48 1
  48   27   28 1
  49   27   31 1
  50   27   49 1
  51   28   29 1
  52   29   30 1
  53   29   50 1
  54   29   51 1
  55   30   31 1
  56   30   52 1
  57   30   53 1
  58   31   54 1
  59   31   55 1

#	End of record

