#	Name: ASD01028413
#	Creating user name:	WinNT
#	Creation time:	15. 06. 2019 18:57

#	Modifying user name:	WinNT
#	Modification time:	15. 06. 2019 18:57

#	Program:	/corina/corina34_cracker 3.40 0067  02.08.2006

@<TRIPOS>MOLECULE
ASD01028413
  46   50    0    0    0
SMALL
NO_CHARGES


@<TRIPOS>ATOM
   1 C1            -0.0171     1.4121     0.0098 C.ar    
   2 C2             0.0021    -0.0041     0.0020 C.ar    
   3 C3             1.2106     2.1118     0.0018 C.ar    
   4 C4             2.3793     1.3716    -0.0133 C.ar    
   5 C5             2.3160    -0.0161    -0.0202 C.ar    
   6 N6             1.1705    -0.6564    -0.0123 N.ar    
   7 O7             1.2422     3.4673     0.0084 O.3     
   8 C8             2.5302     4.0862    -0.0005 C.3     
   9 C9             2.3676     5.5844     0.0086 C.2     
  10 N10            2.2919     6.3713     1.1038 N.pl3   
  11 C11            2.1483     7.6563     0.6386 C.2     
  12 N12            2.1441     7.5870    -0.6827 N.2     
  13 N13            2.2800     6.3590    -1.0442 N.2     
  14 N14            2.3305     6.1236     2.4775 N.2     
  15 C15            2.2300     7.1161     3.3376 C.2     
  16 C16            2.0815     8.4480     2.8889 C.2     
  17 C17            2.0416     8.7177     1.5584 C.2     
  18 C18            2.2725     6.8339     4.7867 C.2     
  19 C19           -1.2149    -0.7042     0.0100 C.ar    
  20 C20           -2.4012    -0.0062     0.0251 C.ar    
  21 C21           -2.4084     1.3917     0.0326 C.ar    
  22 C22           -1.2427     2.0939     0.0310 C.ar    
  23 O23           -3.5785    -0.6836     0.0324 O.3     
  24 C24           -4.7757     0.0965     0.0481 C.3     
  25 C25            2.4096     5.6108     5.3384 C.2     
  26 C26            2.4223     5.5984     6.7168 C.2     
  27 C27            2.2971     6.7971     7.2953 C.2     
  28 S28            2.1597     8.0417     6.0604 S.3     
  29 C29            2.2825     7.0452     8.7817 C.3     
  30 H30            3.3371     1.8706    -0.0202 H       
  31 H31            3.2348    -0.5836    -0.0325 H       
  32 H32            3.0885     3.7759     0.8827 H       
  33 H33            3.0719     3.7850    -0.8972 H       
  34 H34            1.9998     9.2524     3.6049 H       
  35 H35            1.9284     9.7336     1.2098 H       
  36 H36           -1.2202    -1.7841     0.0039 H       
  37 H37           -3.3500     1.9205     0.0441 H       
  38 H38           -1.2613     3.1737     0.0368 H       
  39 H39           -4.8080     0.7304    -0.8380 H       
  40 H40           -5.6412    -0.5662     0.0525 H       
  41 H41           -4.7912     0.7203     0.9418 H       
  42 H42            2.5019     4.7119     4.7468 H       
  43 H43            2.5254     4.6872     7.2874 H       
  44 H44            3.3006     7.2158     9.1317 H       
  45 H45            1.6723     7.9223     8.9977 H       
  46 H46            1.8639     6.1771     9.2909 H       
@<TRIPOS>BOND
   1    1    2 ar
   2    1    3 ar
   3    1   22 ar
   4    2   19 ar
   5    2    6 ar
   6    3    4 ar
   7    3    7 1
   8    4    5 ar
   9    4   30 1
  10    5    6 ar
  11    5   31 1
  12    7    8 1
  13    8    9 1
  14    8   32 1
  15    8   33 1
  16    9   10 1
  17    9   13 2
  18   10   11 1
  19   10   14 1
  20   11   12 2
  21   11   17 1
  22   12   13 1
  23   14   15 2
  24   15   16 1
  25   15   18 1
  26   16   17 2
  27   16   34 1
  28   17   35 1
  29   18   25 2
  30   18   28 1
  31   19   20 ar
  32   19   36 1
  33   20   21 ar
  34   20   23 1
  35   21   22 ar
  36   21   37 1
  37   22   38 1
  38   23   24 1
  39   24   39 1
  40   24   40 1
  41   24   41 1
  42   25   26 1
  43   25   42 1
  44   26   27 2
  45   26   43 1
  46   27   28 1
  47   27   29 1
  48   29   44 1
  49   29   45 1
  50   29   46 1

#	End of record

