#	Name: ASD03540166
#	Creating user name:	WinNT
#	Creation time:	15. 06. 2019 20:42

#	Modifying user name:	WinNT
#	Modification time:	15. 06. 2019 20:42

#	Program:	/corina/corina34_cracker 3.40 0067  02.08.2006

@<TRIPOS>MOLECULE
ASD03540166
  57   60    0    0    0
SMALL
NO_CHARGES


@<TRIPOS>ATOM
   1 C1             2.7434    -8.6899    -2.5620 C.2     
   2 C2             2.0545    -7.5576    -1.9097 C.ar    
   3 C3             0.6695    -7.5863    -1.7345 C.ar    
   4 C4             0.0326    -6.5258    -1.1241 C.ar    
   5 C5             0.7629    -5.4351    -0.6864 C.ar    
   6 C6             2.1356    -5.3999    -0.8573 C.ar    
   7 C7             2.7860    -6.4564    -1.4604 C.ar    
   8 O8             2.1050    -9.6488    -2.9473 O.2     
   9 O9             4.0790    -8.6566    -2.7345 O.3     
  10 C10            0.0601    -4.2800    -0.0210 C.3     
  11 C11           -2.3002    -4.3354     0.5393 C.2     
  12 N12           -3.3607    -4.7614     1.2401 N.am    
  13 C13           -3.2260    -5.6927     2.2544 C.2     
  14 C14           -1.9634    -6.1935     2.5486 C.2     
  15 C15           -0.8249    -5.6915     1.7469 C.2     
  16 N16           -1.0579    -4.7846     0.7800 N.am    
  17 C17           -1.9741    -7.1224     3.5916 C.2     
  18 C18           -3.1907    -7.3565     4.1112 C.2     
  19 S19           -4.3982    -6.3897     3.2832 S.3     
  20 O20            0.3042    -6.0930     1.9583 O.2     
  21 O21           -2.4694    -3.5197    -0.3462 O.2     
  22 C22            1.0439    -3.5387     0.8865 C.3     
  23 C23           -3.4688    -8.2846     5.2098 C.2     
  24 N24           -4.7311    -8.4434     5.6546 N.am    
  25 O25           -2.5598    -8.9124     5.7210 O.2     
  26 C26           -5.0092    -9.3716     6.7534 C.3     
  27 C27           -6.4854    -9.3635     7.0564 C.ar    
  28 C28           -7.3293   -10.2442     6.4060 C.ar    
  29 C29           -8.6834   -10.2367     6.6838 C.ar    
  30 C30           -9.1936    -9.3488     7.6125 C.ar    
  31 C31           -8.3495    -8.4687     8.2635 C.ar    
  32 C32           -6.9947    -8.4792     7.9888 C.ar    
  33 C33           -8.9057    -7.5005     9.2756 C.3     
  34 F34          -10.2888    -7.6812     9.3828 F       
  35 F35           -8.3075    -7.7308    10.5191 F       
  36 F36           -8.6370    -6.1905     8.8643 F       
  37 C37           -9.6036   -11.1961     5.9740 C.3     
  38 F38           -9.6973   -12.3826     6.7093 F       
  39 F39          -10.8732   -10.6212     5.8527 F       
  40 F40           -9.0945   -11.4752     4.7012 F       
  41 H41            0.0982    -8.4367    -2.0763 H       
  42 H42           -1.0386    -6.5467    -0.9880 H       
  43 H43            2.6995    -4.5452    -0.5140 H       
  44 H44            3.8580    -6.4298    -1.5889 H       
  45 H45            4.4851    -9.4206    -3.1663 H       
  46 H46           -0.3174    -3.5971    -0.7821 H       
  47 H47           -4.2403    -4.4093     1.0321 H       
  48 H48           -1.0801    -7.6112     3.9499 H       
  49 H49            1.8758    -3.1633     0.2905 H       
  50 H50            0.5356    -2.7033     1.3678 H       
  51 H51            1.4214    -4.2216     1.6476 H       
  52 H52           -5.4554    -7.9431     5.2472 H       
  53 H53           -4.7029   -10.3774     6.4658 H       
  54 H54           -4.4547    -9.0624     7.6394 H       
  55 H55           -6.9308   -10.9379     5.6804 H       
  56 H56          -10.2516    -9.3424     7.8290 H       
  57 H57           -6.3347    -7.7941     8.5002 H       
@<TRIPOS>BOND
   1    1    2 1
   2    1    8 2
   3    1    9 1
   4    2    3 ar
   5    2    7 ar
   6    3    4 ar
   7    3   41 1
   8    4    5 ar
   9    4   42 1
  10    5    6 ar
  11    5   10 1
  12    6    7 ar
  13    6   43 1
  14    7   44 1
  15    9   45 1
  16   10   16 1
  17   10   22 1
  18   10   46 1
  19   11   12 am
  20   11   16 am
  21   11   21 2
  22   12   13 1
  23   12   47 1
  24   13   14 2
  25   13   19 1
  26   14   15 1
  27   14   17 1
  28   15   16 am
  29   15   20 2
  30   17   18 2
  31   17   48 1
  32   18   19 1
  33   18   23 1
  34   22   49 1
  35   22   50 1
  36   22   51 1
  37   23   24 am
  38   23   25 2
  39   24   26 1
  40   24   52 1
  41   26   27 1
  42   26   53 1
  43   26   54 1
  44   27   28 ar
  45   27   32 ar
  46   28   29 ar
  47   28   55 1
  48   29   30 ar
  49   29   37 1
  50   30   31 ar
  51   30   56 1
  52   31   32 ar
  53   31   33 1
  54   32   57 1
  55   33   34 1
  56   33   35 1
  57   33   36 1
  58   37   38 1
  59   37   39 1
  60   37   40 1

#	End of record

