#	Name: ASD03092459
#	Creating user name:	WinNT
#	Creation time:	15. 06. 2019 20:32

#	Modifying user name:	WinNT
#	Modification time:	15. 06. 2019 20:32

#	Program:	/corina/corina34_cracker 3.40 0067  02.08.2006

@<TRIPOS>MOLECULE
ASD03092459
  64   67    0    0    0
SMALL
NO_CHARGES


@<TRIPOS>ATOM
   1 C1             0.0771     1.1540    -0.1544 C.ar    
   2 C2             0.1739    -0.2346    -0.0537 C.ar    
   3 C3             1.4424    -0.8187     0.0423 C.ar    
   4 C4             2.5494     0.0120     0.0330 C.ar    
   5 C5             2.3688     1.3793    -0.0698 C.ar    
   6 N6             1.1605     1.9021    -0.1590 N.ar    
   7 C7            -1.0428    -1.0745    -0.0482 C.2     
   8 O8            -2.1408    -0.5536    -0.0248 O.2     
   9 N9            -0.9344    -2.4177    -0.0690 N.am    
  10 C10            3.5717     2.2871    -0.0802 C.3     
  11 F11            4.0014     2.4767    -1.3980 F       
  12 F12            3.2289     3.5220     0.4808 F       
  13 F13            4.6015     1.7052     0.6670 F       
  14 C14           -1.2789     1.8022    -0.2650 C.3     
  15 C15           -2.1400    -3.2500    -0.0635 C.3     
  16 S16           -1.1817    -7.0608    -0.8099 S.3     
  17 C17           -1.1212    -6.6308     0.8434 C.2     
  18 N18           -1.4451    -5.3819     0.9964 N.2     
  19 C19           -1.7465    -4.7045    -0.0901 C.2     
  20 C20           -1.6734    -5.4222    -1.2305 C.2     
  21 C21           -3.0271    -5.1311    -4.7215 C.ar    
  22 C22           -2.7906    -5.6352    -3.4610 C.ar    
  23 C23           -1.9553    -4.9225    -2.5903 C.ar    
  24 C24           -1.3956    -3.7217    -3.0469 C.ar    
  25 C25           -1.6862    -3.2924    -4.3237 C.ar    
  26 N26           -2.4791    -3.9951    -5.1115 N.ar    
  27 C27           -1.0910    -2.0029    -4.8277 C.3     
  28 C28           -3.9184    -5.8903    -5.6703 C.3     
  29 N29           -0.7771    -7.4896     1.8714 N.3     
  30 C30           -0.4668    -8.8309     1.3557 C.3     
  31 C31           -0.1503    -9.7622     2.5289 C.3     
  32 O32            0.9281    -9.2120     3.2902 O.3     
  33 C33            0.6597    -7.9063     3.8083 C.3     
  34 C34            0.3514    -6.9562     2.6481 C.3     
  35 C35            1.8838    -7.3985     4.5730 C.3     
  36 C36            0.2515   -11.1385     1.9947 C.3     
  37 H37            1.5544    -1.8899     0.1219 H       
  38 H38            3.5437    -0.4032     0.1057 H       
  39 H39           -0.0582    -2.8334    -0.0877 H       
  40 H40           -1.7086     1.9179     0.7300 H       
  41 H41           -1.1764     2.7815    -0.7326 H       
  42 H42           -1.9324     1.1762    -0.8725 H       
  43 H43           -2.7180    -3.0464     0.8380 H       
  44 H44           -2.7438    -3.0209    -0.9416 H       
  45 H45           -3.2426    -6.5650    -3.1486 H       
  46 H46           -0.7466    -3.1413    -2.4078 H       
  47 H47           -0.1340    -2.2075    -5.3076 H       
  48 H48           -1.7692    -1.5472    -5.5491 H       
  49 H49           -0.9394    -1.3212    -3.9907 H       
  50 H50           -4.9497    -5.5621    -5.5413 H       
  51 H51           -3.6023    -5.7007    -6.6961 H       
  52 H52           -3.8477    -6.9575    -5.4597 H       
  53 H53           -1.3251    -9.2170     0.8058 H       
  54 H54            0.3962    -8.7751     0.6922 H       
  55 H55           -1.0310    -9.8603     3.1636 H       
  56 H56           -0.1975    -7.9504     4.4802 H       
  57 H57            1.2275    -6.8704     2.0052 H       
  58 H58            0.0903    -5.9738     3.0416 H       
  59 H59            2.7397    -7.3530     3.8996 H       
  60 H60            1.6786    -6.4033     4.9676 H       
  61 H61            2.1051    -8.0774     5.3965 H       
  62 H62            1.1333   -11.0393     1.3618 H       
  63 H63            0.4767   -11.8010     2.8304 H       
  64 H64           -0.5694   -11.5556     1.4113 H       
@<TRIPOS>BOND
   1    1    2 ar
   2    1    6 ar
   3    1   14 1
   4    2    3 ar
   5    2    7 1
   6    3    4 ar
   7    3   37 1
   8    4    5 ar
   9    4   38 1
  10    5    6 ar
  11    5   10 1
  12    7    8 2
  13    7    9 am
  14    9   15 1
  15    9   39 1
  16   10   11 1
  17   10   12 1
  18   10   13 1
  19   14   40 1
  20   14   41 1
  21   14   42 1
  22   15   19 1
  23   15   43 1
  24   15   44 1
  25   16   17 1
  26   16   20 1
  27   17   18 2
  28   17   29 1
  29   18   19 1
  30   19   20 2
  31   20   23 1
  32   21   22 ar
  33   21   26 ar
  34   21   28 1
  35   22   23 ar
  36   22   45 1
  37   23   24 ar
  38   24   25 ar
  39   24   46 1
  40   25   26 ar
  41   25   27 1
  42   27   47 1
  43   27   48 1
  44   27   49 1
  45   28   50 1
  46   28   51 1
  47   28   52 1
  48   29   30 1
  49   29   34 1
  50   30   31 1
  51   30   53 1
  52   30   54 1
  53   31   32 1
  54   31   36 1
  55   31   55 1
  56   32   33 1
  57   33   34 1
  58   33   35 1
  59   33   56 1
  60   34   57 1
  61   34   58 1
  62   35   59 1
  63   35   60 1
  64   35   61 1
  65   36   62 1
  66   36   63 1
  67   36   64 1

#	End of record

