#	Name: ASD00191014
#	Creating user name:	WinNT
#	Creation time:	15. 06. 2019 18:33

#	Modifying user name:	WinNT
#	Modification time:	15. 06. 2019 18:33

#	Program:	/corina/corina34_cracker 3.40 0067  02.08.2006

@<TRIPOS>MOLECULE
ASD00191014
  54   58    0    0    0
SMALL
NO_CHARGES


@<TRIPOS>ATOM
   1 C1            -0.1518     1.0815     0.2989 C.2     
   2 C2             0.1037     0.1709    -0.6161 C.2     
   3 C3             1.2839    -0.7551    -0.5655 C.3     
   4 C4             2.3303    -0.2215     0.4150 C.3     
   5 C5             1.6308     0.1174     1.7370 C.3     
   6 C6             0.7094     1.3168     1.5056 C.3     
   7 C7            -1.3466     1.9211     0.1262 C.2     
   8 O8            -2.0660     1.7631    -0.8416 O.2     
   9 N9            -1.6444     2.8656     1.0403 N.am    
  10 N10           -5.1338     5.1048     0.6452 N.ar    
  11 C11           -5.0648     3.8909     0.1350 C.ar    
  12 C12           -3.9096     3.1114     0.2496 C.ar    
  13 C13           -2.8074     3.6165     0.9105 C.ar    
  14 C14           -2.8967     4.9228     1.4530 C.ar    
  15 C15           -1.8191     5.5011     2.1360 C.ar    
  16 C16           -1.9402     6.7603     2.6444 C.ar    
  17 C17           -3.1224     7.4791     2.4937 C.ar    
  18 C18           -4.1889     6.9456     1.8355 C.ar    
  19 C19           -4.1000     5.6509     1.2975 C.ar    
  20 N20           -6.1671     3.3734    -0.5314 N.pl3   
  21 C21           -7.3844     4.0597    -0.5067 C.ar    
  22 C22           -7.4020     5.4436    -0.3850 C.ar    
  23 C23           -8.6065     6.1158    -0.3611 C.ar    
  24 C24           -9.7994     5.4172    -0.4574 C.ar    
  25 C25           -9.7853     4.0397    -0.5785 C.ar    
  26 C26           -8.5795     3.3617    -0.6092 C.ar    
  27 C27          -11.2291     5.9154    -0.4543 C.3     
  28 C28          -12.0646     4.7493    -1.0236 C.3     
  29 C29          -11.2042     3.5192    -0.6651 C.3     
  30 H30           -0.5753     0.0846    -1.4515 H       
  31 H31            0.9549    -1.7423    -0.2410 H       
  32 H32            1.7256    -0.8320    -1.5590 H       
  33 H33            3.0916    -0.9822     0.5880 H       
  34 H34            2.7924     0.6764     0.0046 H       
  35 H35            1.0422    -0.7377     2.0696 H       
  36 H36            2.3760     0.3684     2.4918 H       
  37 H37            1.3127     2.2112     1.3501 H       
  38 H38            0.0747     1.4590     2.3802 H       
  39 H39           -1.0475     3.0214     1.7888 H       
  40 H40           -3.8793     2.1197    -0.1772 H       
  41 H41           -0.8973     4.9521     2.2595 H       
  42 H42           -1.1087     7.2052     3.1709 H       
  43 H43           -3.1954     8.4750     2.9052 H       
  44 H44           -5.0994     7.5162     1.7269 H       
  45 H45           -6.0926     2.5354    -1.0142 H       
  46 H46           -6.4747     5.9919    -0.3090 H       
  47 H47           -8.6198     7.1915    -0.2666 H       
  48 H48           -8.5684     2.2863    -0.7084 H       
  49 H49          -11.5466     6.1472     0.5623 H       
  50 H50          -11.3243     6.7951    -1.0910 H       
  51 H51          -13.0383     4.6964    -0.5366 H       
  52 H52          -12.1752     4.8432    -2.1040 H       
  53 H53          -11.2825     2.7624    -1.4457 H       
  54 H54          -11.5151     3.1070     0.2949 H       
@<TRIPOS>BOND
   1    1    2 2
   2    1    6 1
   3    1    7 1
   4    2    3 1
   5    2   30 1
   6    3    4 1
   7    3   31 1
   8    3   32 1
   9    4    5 1
  10    4   33 1
  11    4   34 1
  12    5    6 1
  13    5   35 1
  14    5   36 1
  15    6   37 1
  16    6   38 1
  17    7    8 2
  18    7    9 am
  19    9   13 1
  20    9   39 1
  21   10   11 ar
  22   10   19 ar
  23   11   12 ar
  24   11   20 1
  25   12   13 ar
  26   12   40 1
  27   13   14 ar
  28   14   15 ar
  29   14   19 ar
  30   15   16 ar
  31   15   41 1
  32   16   17 ar
  33   16   42 1
  34   17   18 ar
  35   17   43 1
  36   18   19 ar
  37   18   44 1
  38   20   21 1
  39   20   45 1
  40   21   22 ar
  41   21   26 ar
  42   22   23 ar
  43   22   46 1
  44   23   24 ar
  45   23   47 1
  46   24   25 ar
  47   24   27 1
  48   25   26 ar
  49   25   29 1
  50   26   48 1
  51   27   28 1
  52   27   49 1
  53   27   50 1
  54   28   29 1
  55   28   51 1
  56   28   52 1
  57   29   53 1
  58   29   54 1

#	End of record

