#	Name: ASD08830110
#	Creating user name:	WinNT
#	Creation time:	15. 06. 2019 21:19

#	Modifying user name:	WinNT
#	Modification time:	15. 06. 2019 21:19

#	Program:	/corina/corina34_cracker 3.40 0067  02.08.2006

@<TRIPOS>MOLECULE
ASD08830110
  33   34    0    0    0
SMALL
NO_CHARGES


@<TRIPOS>ATOM
   1 C1            -0.0179     1.4667     0.0101 C.ar    
   2 C2             0.0021    -0.0041     0.0020 C.2     
   3 C3             1.3172    -0.7397    -0.0145 C.3     
   4 C4             1.0581    -2.2476    -0.0201 C.3     
   5 N5             2.3401    -2.9647    -0.0362 N.3     
   6 O6            -1.0397    -0.6246     0.0086 O.2     
   7 C7             1.1815     2.1862     0.0025 C.ar    
   8 C8             1.1544     3.5647     0.0097 C.ar    
   9 C9            -0.0553     4.2373     0.0244 C.ar    
  10 C10           -1.2467     3.5340     0.0320 C.ar    
  11 C11           -1.2374     2.1539     0.0196 C.ar    
  12 C12            2.1422    -4.4028     0.1963 C.3     
  13 C13            3.4931    -5.1184     0.1121 C.3     
  14 O14            4.3950    -4.5362     1.0571 O.3     
  15 C15            4.6112    -3.1363     0.8596 C.3     
  16 C16            3.2717    -2.4007     0.9513 C.3     
  17 Br17          -2.8668     1.1943     0.0294 Br      
  18 H18            1.8766    -0.4639    -0.9084 H       
  19 H19            1.8936    -0.4734     0.8715 H       
  20 H20            0.4987    -2.5235     0.8738 H       
  21 H21            0.4817    -2.5139    -0.9061 H       
  22 H22            2.1264     1.6634    -0.0086 H       
  23 H23            2.0799     4.1213     0.0042 H       
  24 H24           -0.0691     5.3172     0.0303 H       
  25 H25           -2.1864     4.0662     0.0434 H       
  26 H26            1.7104    -4.5556     1.1854 H       
  27 H27            1.4696    -4.8048    -0.5613 H       
  28 H28            3.3596    -6.1759     0.3402 H       
  29 H29            3.8999    -5.0108    -0.8933 H       
  30 H30            5.2863    -2.7603     1.6283 H       
  31 H31            5.0505    -2.9711    -0.1242 H       
  32 H32            3.4234    -1.3412     0.7449 H       
  33 H33            2.8579    -2.5214     1.9525 H       
@<TRIPOS>BOND
   1    1    2 1
   2    1    7 ar
   3    1   11 ar
   4    2    3 1
   5    2    6 2
   6    3    4 1
   7    3   18 1
   8    3   19 1
   9    4    5 1
  10    4   20 1
  11    4   21 1
  12    5   12 1
  13    5   16 1
  14    7    8 ar
  15    7   22 1
  16    8    9 ar
  17    8   23 1
  18    9   10 ar
  19    9   24 1
  20   10   11 ar
  21   10   25 1
  22   11   17 1
  23   12   13 1
  24   12   26 1
  25   12   27 1
  26   13   14 1
  27   13   28 1
  28   13   29 1
  29   14   15 1
  30   15   16 1
  31   15   30 1
  32   15   31 1
  33   16   32 1
  34   16   33 1

#	End of record

