#	Name: ASD01913278
#	Creating user name:	WinNT
#	Creation time:	15. 06. 2019 20:01

#	Modifying user name:	WinNT
#	Modification time:	15. 06. 2019 20:01

#	Program:	/corina/corina34_cracker 3.40 0067  02.08.2006

@<TRIPOS>MOLECULE
ASD01913278
  49   52    0    0    0
SMALL
NO_CHARGES


@<TRIPOS>ATOM
   1 C1            -0.0895     1.4762    -0.2764 C.3     
   2 N2            -0.0403     0.0111    -0.2448 N.am    
   3 C3             1.3431    -0.3748    -0.5406 C.3     
   4 C4             2.1363     0.8897    -0.7534 C.ar    
   5 C5             3.4726     1.0880    -1.0562 C.ar    
   6 C6             3.9669     2.3696    -1.2031 C.ar    
   7 C7             3.1261     3.4560    -1.0480 C.ar    
   8 C8             1.7925     3.2588    -0.7463 C.ar    
   9 C9             1.2966     1.9747    -0.5985 C.ar    
  10 C10           -1.0694    -0.8216     0.0083 C.2     
  11 C11           -0.8849    -2.2814    -0.1129 C.ar    
  12 C12           -1.9822    -3.1346    -0.0019 C.ar    
  13 C13           -1.8018    -4.5109    -0.1170 C.ar    
  14 C14           -0.5162    -5.0288    -0.3439 C.ar    
  15 C15            0.5684    -4.1706    -0.4521 C.ar    
  16 C16            0.3895    -2.8083    -0.3445 C.ar    
  17 O17           -2.1498    -0.3706     0.3362 O.2     
  18 C18           -2.9229    -5.3946    -0.0040 C.1     
  19 C19           -3.8420    -6.1191     0.0887 C.1     
  20 C20           -4.9631    -7.0028     0.2018 C.ar    
  21 C21           -4.7830    -8.3839     0.0864 C.ar    
  22 C22           -5.8673    -9.2288     0.1969 C.ar    
  23 C23           -7.1315    -8.7121     0.4209 C.ar    
  24 C24           -7.3176    -7.3459     0.5358 C.ar    
  25 C25           -6.2415    -6.4888     0.4337 C.ar    
  26 C26           -5.6752   -10.7183     0.0728 C.3     
  27 O27           -0.3349    -6.3682    -0.4568 O.3     
  28 C28            0.9993    -6.8251    -0.6871 C.3     
  29 H29           -0.7886     1.8059    -1.0450 H       
  30 H30           -0.4021     1.8565     0.6961 H       
  31 H31            1.7579    -0.9344     0.2978 H       
  32 H32            1.3715    -0.9850    -1.4434 H       
  33 H33            4.1297     0.2395    -1.1773 H       
  34 H34            5.0098     2.5228    -1.4386 H       
  35 H35            3.5116     4.4584    -1.1623 H       
  36 H36            1.1359     4.1076    -0.6249 H       
  37 H37           -2.9681    -2.7298     0.1729 H       
  38 H38            1.5561    -4.5713    -0.6259 H       
  39 H39            1.2374    -2.1455    -0.4349 H       
  40 H40           -3.7972    -8.7885    -0.0892 H       
  41 H41           -7.9770    -9.3786     0.5062 H       
  42 H42           -8.3071    -6.9497     0.7099 H       
  43 H43           -6.3876    -5.4229     0.5280 H       
  44 H44           -5.4752   -11.1421     1.0569 H       
  45 H45           -6.5784   -11.1680    -0.3398 H       
  46 H46           -4.8331   -10.9222    -0.5886 H       
  47 H47            1.3736    -6.3995    -1.6182 H       
  48 H48            1.6384    -6.5116     0.1384 H       
  49 H49            1.0038    -7.9129    -0.7572 H       
@<TRIPOS>BOND
   1    1    2 1
   2    1    9 1
   3    1   29 1
   4    1   30 1
   5    2    3 1
   6    2   10 am
   7    3    4 1
   8    3   31 1
   9    3   32 1
  10    4    5 ar
  11    4    9 ar
  12    5    6 ar
  13    5   33 1
  14    6    7 ar
  15    6   34 1
  16    7    8 ar
  17    7   35 1
  18    8    9 ar
  19    8   36 1
  20   10   11 1
  21   10   17 2
  22   11   12 ar
  23   11   16 ar
  24   12   13 ar
  25   12   37 1
  26   13   14 ar
  27   13   18 1
  28   14   15 ar
  29   14   27 1
  30   15   16 ar
  31   15   38 1
  32   16   39 1
  33   18   19 3
  34   19   20 1
  35   20   21 ar
  36   20   25 ar
  37   21   22 ar
  38   21   40 1
  39   22   23 ar
  40   22   26 1
  41   23   24 ar
  42   23   41 1
  43   24   25 ar
  44   24   42 1
  45   25   43 1
  46   26   44 1
  47   26   45 1
  48   26   46 1
  49   27   28 1
  50   28   47 1
  51   28   48 1
  52   28   49 1

#	End of record

