#	Name: ASD01730029
#	Creating user name:	WinNT
#	Creation time:	15. 06. 2019 19:23

#	Modifying user name:	WinNT
#	Modification time:	15. 06. 2019 19:23

#	Program:	/corina/corina34_cracker 3.40 0067  02.08.2006

@<TRIPOS>MOLECULE
ASD01730029
  41   42    0    0    0
SMALL
NO_CHARGES


@<TRIPOS>ATOM
   1 C1             0.0551     1.9238     0.1975 C.2     
   2 C2             0.8217     0.6783     0.5608 C.3     
   3 N3             0.6743     3.0738     0.1200 N.2     
   4 N4            -1.2795     1.8516    -0.0553 N.pl3   
   5 N5             2.6788     2.0435     0.5611 N.2     
   6 C6             2.0032     3.1424     0.3524 C.2     
   7 S7             2.8028     4.7123     0.3698 S.3     
   8 C8             4.0760     4.3791     1.6133 C.3     
   9 C9             4.7432     3.0640     1.2993 C.ar    
  10 C10            4.0177     1.9865     0.7942 C.ar    
  11 C11            6.1022     2.9410     1.5213 C.ar    
  12 C12            6.7544     1.7553     1.2427 C.ar    
  13 C13            6.0442     0.6753     0.7353 C.ar    
  14 C14            4.6853     0.7858     0.5108 C.ar    
  15 O15            6.6859    -0.4904     0.4590 O.3     
  16 C16            8.0911    -0.5338     0.7149 C.3     
  17 F17            8.3258    -0.2880     2.0719 F       
  18 F18            8.5878    -1.7973     0.3771 F       
  19 F19            8.7354     0.4414    -0.0539 F       
  20 C20           -2.0477     3.0765    -0.2913 C.3     
  21 C21           -2.0420     3.4020    -1.7862 C.3     
  22 C22           -1.9487     0.5488    -0.0916 C.3     
  23 C23           -2.4485     0.1930     1.3100 C.3     
  24 H24            1.2859     0.8094     1.5383 H       
  25 H25            0.1398    -0.1715     0.5935 H       
  26 H26            1.5938     0.4959    -0.1866 H       
  27 H27            4.8184     5.1771     1.5973 H       
  28 H28            3.6165     4.3278     2.6004 H       
  29 H29            6.6586     3.7786     1.9154 H       
  30 H30            7.8163     1.6686     1.4191 H       
  31 H31            4.1353    -0.0554     0.1158 H       
  32 H32           -3.0743     2.9320     0.0452 H       
  33 H33           -1.5966     3.9004     0.2617 H       
  34 H34           -1.0154     3.5465    -2.1227 H       
  35 H35           -2.4931     2.5781    -2.3392 H       
  36 H36           -2.6136     4.3134    -1.9618 H       
  37 H37           -2.7940     0.5936    -0.7783 H       
  38 H38           -1.2452    -0.2117    -0.4304 H       
  39 H39           -1.6032     0.1482     1.9967 H       
  40 H40           -3.1520     0.9535     1.6488 H       
  41 H41           -2.9464    -0.7763     1.2830 H       
@<TRIPOS>BOND
   1    1    2 1
   2    1    3 2
   3    1    4 1
   4    2   24 1
   5    2   25 1
   6    2   26 1
   7    3    6 1
   8    4   20 1
   9    4   22 1
  10    5    6 2
  11    5   10 1
  12    6    7 1
  13    7    8 1
  14    8    9 1
  15    8   27 1
  16    8   28 1
  17    9   10 ar
  18    9   11 ar
  19   10   14 ar
  20   11   12 ar
  21   11   29 1
  22   12   13 ar
  23   12   30 1
  24   13   14 ar
  25   13   15 1
  26   14   31 1
  27   15   16 1
  28   16   17 1
  29   16   18 1
  30   16   19 1
  31   20   21 1
  32   20   32 1
  33   20   33 1
  34   21   34 1
  35   21   35 1
  36   21   36 1
  37   22   23 1
  38   22   37 1
  39   22   38 1
  40   23   39 1
  41   23   40 1
  42   23   41 1

#	End of record

