#	Name: ASD01918168
#	Creating user name:	WinNT
#	Creation time:	15. 06. 2019 20:10

#	Modifying user name:	WinNT
#	Modification time:	15. 06. 2019 20:10

#	Program:	/corina/corina34_cracker 3.40 0067  02.08.2006

@<TRIPOS>MOLECULE
ASD01918168
  28   30    0    0    0
SMALL
NO_CHARGES


@<TRIPOS>ATOM
   1 F1             4.6902     5.1026    -0.0042 F       
   2 O2            -0.0144     1.2085     0.0087 O.3     
   3 N3             2.0454     0.6370    -0.0141 N.2     
   4 N4             0.0021    -0.0041     0.0020 N.2     
   5 N5             2.9567    -2.1570    -0.0386 N.ar    
   6 N6            -0.7115     7.2992     0.0470 N.1     
   7 N7             3.3252    -6.8906    -0.0678 N.1     
   8 C8             1.6453     3.1051     0.0026 C.ar    
   9 C9             1.2410     1.6828    -0.0008 C.2     
  10 C10            1.2348    -0.4419    -0.0121 C.2     
  11 C11            0.6763     4.1060     0.0173 C.ar    
  12 C12            2.9989     3.4473    -0.0031 C.ar    
  13 C13            1.6629    -1.8632    -0.0243 C.ar    
  14 C14            1.0645     5.4445     0.0208 C.ar    
  15 C15            3.3789     4.7774     0.0009 C.ar    
  16 C16            2.4219     5.7752     0.0097 C.ar    
  17 C17            0.7003    -2.8712    -0.0209 C.ar    
  18 C18            1.1063    -4.1916    -0.0323 C.ar    
  19 C19            2.4806    -4.4655    -0.0468 C.ar    
  20 C20            3.3848    -3.4003    -0.0493 C.ar    
  21 C21            0.0741     6.4787     0.0354 C.1     
  22 C22            2.9516    -5.8178    -0.0585 C.1     
  23 H23           -0.3718     3.8456     0.0255 H       
  24 H24            3.7508     2.6721    -0.0104 H       
  25 H25            2.7241     6.8121     0.0121 H       
  26 H26           -0.3507    -2.6229    -0.0092 H       
  27 H27            0.3824    -4.9931    -0.0296 H       
  28 H28            4.4461    -3.6001    -0.0613 H       
@<TRIPOS>BOND
   1    1   15 1
   2    2    4 1
   3    2    9 1
   4    3    9 2
   5    3   10 1
   6    4   10 2
   7    5   13 ar
   8    5   20 ar
   9    6   21 3
  10    7   22 3
  11    8    9 1
  12    8   11 ar
  13    8   12 ar
  14   10   13 1
  15   11   14 ar
  16   11   23 1
  17   12   15 ar
  18   12   24 1
  19   13   17 ar
  20   14   16 ar
  21   14   21 1
  22   15   16 ar
  23   16   25 1
  24   17   18 ar
  25   17   26 1
  26   18   19 ar
  27   18   27 1
  28   19   20 ar
  29   19   22 1
  30   20   28 1

#	End of record

