#	Name: ASD01910023
#	Creating user name:	WinNT
#	Creation time:	15. 06. 2019 19:55

#	Modifying user name:	WinNT
#	Modification time:	15. 06. 2019 19:55

#	Program:	/corina/corina34_cracker 3.40 0067  02.08.2006

@<TRIPOS>MOLECULE
ASD01910023
  44   47    0    0    0
SMALL
NO_CHARGES


@<TRIPOS>ATOM
   1 C1            -0.0167     1.3769     0.0096 C.ar    
   2 C2             0.0021    -0.0041     0.0020 C.ar    
   3 C3             1.2080    -0.6806    -0.0131 C.ar    
   4 C4             2.3987     0.0227    -0.0207 C.ar    
   5 C5             2.3866     1.4038    -0.0132 C.ar    
   6 C6             1.1772     2.0861     0.0020 C.ar    
   7 N7             1.1616     3.4868     0.0097 N.pl3   
   8 C8             0.2442     4.2807    -0.6093 C.2     
   9 C9             0.5823     5.5733    -0.3604 C.2     
  10 C10            1.7431     5.5689     0.4359 C.2     
  11 N11            2.0833     4.3169     0.6603 N.2     
  12 N12           -0.8449     3.8459    -1.3622 N.am    
  13 C13           -1.6787     4.7446    -1.9224 C.2     
  14 C14           -2.8339     4.2834    -2.7211 C.ar    
  15 C15           -3.6967     5.2109    -3.3008 C.ar    
  16 C16           -4.7837     4.7674    -4.0523 C.ar    
  17 C17           -5.0008     3.3973    -4.2192 C.ar    
  18 C18           -4.1417     2.4836    -3.6412 C.ar    
  19 C19           -3.0597     2.9163    -2.9009 C.ar    
  20 C20            2.4562     6.7682     0.9409 C.ar    
  21 C21            3.5999     6.6237     1.7236 C.ar    
  22 C22            4.2593     7.7426     2.1907 C.ar    
  23 C23            3.7867     9.0057     1.8832 C.ar    
  24 C24            2.6519     9.1550     1.1066 C.ar    
  25 C25            1.9879     8.0431     0.6294 C.ar    
  26 O26           -1.4806     5.9344    -1.7710 O.2     
  27 C27           -5.6759     5.7137    -4.6515 C.1     
  28 N28           -6.3838     6.4644    -5.1268 N.1     
  29 H29           -0.9589     1.9047     0.0169 H       
  30 H30           -0.9261    -0.5562     0.0083 H       
  31 H31            1.2201    -1.7605    -0.0187 H       
  32 H32            3.3389    -0.5085    -0.0322 H       
  33 H33            3.3168     1.9525    -0.0188 H       
  34 H34            0.0548     6.4479    -0.7115 H       
  35 H35           -1.0030     2.8966    -1.4831 H       
  36 H36           -3.5243     6.2688    -3.1683 H       
  37 H37           -5.8425     3.0521    -4.8011 H       
  38 H38           -4.3143     1.4257    -3.7730 H       
  39 H39           -2.3918     2.1963    -2.4516 H       
  40 H40            3.9695     5.6379     1.9647 H       
  41 H41            5.1456     7.6317     2.7978 H       
  42 H42            4.3056     9.8785     2.2511 H       
  43 H43            2.2872    10.1435     0.8694 H       
  44 H44            1.1020     8.1608     0.0231 H       
@<TRIPOS>BOND
   1    1    2 ar
   2    1    6 ar
   3    1   29 1
   4    2    3 ar
   5    2   30 1
   6    3    4 ar
   7    3   31 1
   8    4    5 ar
   9    4   32 1
  10    5    6 ar
  11    5   33 1
  12    6    7 1
  13    7    8 1
  14    7   11 1
  15    8    9 2
  16    8   12 1
  17    9   10 1
  18    9   34 1
  19   10   11 2
  20   10   20 1
  21   12   13 am
  22   12   35 1
  23   13   14 1
  24   13   26 2
  25   14   15 ar
  26   14   19 ar
  27   15   16 ar
  28   15   36 1
  29   16   17 ar
  30   16   27 1
  31   17   18 ar
  32   17   37 1
  33   18   19 ar
  34   18   38 1
  35   19   39 1
  36   20   21 ar
  37   20   25 ar
  38   21   22 ar
  39   21   40 1
  40   22   23 ar
  41   22   41 1
  42   23   24 ar
  43   23   42 1
  44   24   25 ar
  45   24   43 1
  46   25   44 1
  47   27   28 3

#	End of record

