#	Name: ASD01811576
#	Creating user name:	WinNT
#	Creation time:	15. 06. 2019 19:27

#	Modifying user name:	WinNT
#	Modification time:	15. 06. 2019 19:27

#	Program:	/corina/corina34_cracker 3.40 0067  02.08.2006

@<TRIPOS>MOLECULE
ASD01811576
  33   32    0    0    0
SMALL
NO_CHARGES


@<TRIPOS>ATOM
   1 C1             0.2087     1.4639     0.1502 C.2     
   2 C2             0.1118    -0.0082     0.0709 C.ar    
   3 C3             1.1995    -0.7582    -0.3840 C.ar    
   4 C4             1.1099    -2.1335    -0.4585 C.ar    
   5 C5            -0.0534    -2.7773    -0.0841 C.ar    
   6 C6            -1.1473    -2.0401     0.3725 C.ar    
   7 C7            -1.0628    -0.6527     0.4550 C.ar    
   8 O8             1.2686     2.0155    -0.0686 O.2     
   9 O9            -0.8797     2.1949     0.4598 O.3     
  10 C10           -0.1421    -4.2793    -0.1693 C.3     
  11 C11            2.4726    -0.0641    -0.7945 C.3     
  12 C12           -2.3928    -2.7322     0.7731 C.2     
  13 O13           -3.4874    -2.0132     1.1105 O.3     
  14 C14           -4.6546    -2.7466     1.4868 C.3     
  15 N15           -2.4345    -4.0311     0.8005 N.2     
  16 C16           -0.7108     3.6358     0.5199 C.3     
  17 H17            1.9531    -2.7089    -0.8113 H       
  18 H18           -1.9051    -0.0782     0.8112 H       
  19 H19            0.0549    -4.7112     0.8119 H       
  20 H20           -1.1407    -4.5662    -0.4987 H       
  21 H21            0.5954    -4.6469    -0.8827 H       
  22 H22            3.0705     0.1518     0.0910 H       
  23 H23            3.0383    -0.7100    -1.4661 H       
  24 H24            2.2300     0.8677    -1.3052 H       
  25 H25           -4.4308    -3.3647     2.3563 H       
  26 H26           -5.4572    -2.0512     1.7324 H       
  27 H27           -4.9663    -3.3834     0.6589 H       
  28 H28           -3.2507    -4.4847     1.0630 H       
  29 H29           -0.3775     4.0033    -0.4507 H       
  30 H30           -1.6613     4.1025     0.7783 H       
  31 H31            0.0332     3.8831     1.2771 H       
  32 Cl32           8.0705     9.1025     7.3563 Cl      
  33 H33            8.0705    10.4725     7.3563 H       
@<TRIPOS>BOND
   1    1    2 1
   2    1    8 2
   3    1    9 1
   4    2    3 ar
   5    2    7 ar
   6    3    4 ar
   7    3   11 1
   8    4    5 ar
   9    4   17 1
  10    5    6 ar
  11    5   10 1
  12    6    7 ar
  13    6   12 1
  14    7   18 1
  15    9   16 1
  16   10   19 1
  17   10   20 1
  18   10   21 1
  19   11   22 1
  20   11   23 1
  21   11   24 1
  22   12   13 1
  23   12   15 2
  24   13   14 1
  25   14   25 1
  26   14   26 1
  27   14   27 1
  28   15   28 1
  29   16   29 1
  30   16   30 1
  31   16   31 1
  32   32   33 1

#	End of record

