#	Name: ASD01884748
#	Creating user name:	WinNT
#	Creation time:	15. 06. 2019 19:48

#	Modifying user name:	WinNT
#	Modification time:	15. 06. 2019 19:48

#	Program:	/corina/corina34_cracker 3.40 0067  02.08.2006

@<TRIPOS>MOLECULE
ASD01884748
  55   57    0    0    0
SMALL
NO_CHARGES


@<TRIPOS>ATOM
   1 C1            -3.2468     0.6205     1.2856 C.2     
   2 C2            -2.9165    -0.7022     1.0018 C.2     
   3 C3            -1.6563    -0.9851     0.4619 C.2     
   4 C4            -0.7752     0.0257     0.2225 C.2     
   5 N5            -1.0957     1.3158     0.4985 N.am    
   6 C6            -2.2974     1.6386     1.0125 C.2     
   7 O7            -2.5654     2.8037     1.2530 O.2     
   8 C8            -0.1201     2.3745     0.2270 C.3     
   9 C9            -4.5264     0.9483     1.8386 C.1     
  10 N10           -5.5416     1.2083     2.2772 N.1     
  11 C11           -0.3156     2.8949    -1.1984 C.3     
  12 C12            0.7032     4.0005    -1.4819 C.3     
  13 C13            0.5911     4.4344    -2.9448 C.3     
  14 C14            0.4228     5.1980    -0.5718 C.3     
  15 N15           -1.3005    -2.3102     0.1676 N.pl3   
  16 C16            0.0577    -2.5855    -0.2479 C.3     
  17 C17            0.1540    -2.5005    -1.7920 C.3     
  18 C18           -0.5725    -3.6319    -2.3995 C.3     
  19 N19           -2.0056    -3.6552    -2.1082 N.3     
  20 C20           -2.2638    -4.3641    -0.8727 C.3     
  21 C21           -2.3281    -3.3637     0.3016 C.3     
  22 C22           -2.7225    -4.2172    -3.1670 C.ar    
  23 C23           -2.2835    -5.3955    -3.7572 C.ar    
  24 C24           -2.9950    -5.9487    -4.8036 C.ar    
  25 C25           -4.1433    -5.3309    -5.2640 C.ar    
  26 C26           -4.5832    -4.1578    -4.6787 C.ar    
  27 C27           -3.8794    -3.6020    -3.6285 C.ar    
  28 H28           -3.6212    -1.4973     1.1957 H       
  29 H29            0.1948    -0.2030    -0.1937 H       
  30 H30           -0.2636     3.1909     0.9347 H       
  31 H31            0.8885     1.9750     0.3328 H       
  32 H32           -0.1722     2.0784    -1.9062 H       
  33 H33           -1.3243     3.2944    -1.3042 H       
  34 H34            1.7087     3.6260    -1.2901 H       
  35 H35           -0.4144     4.8090    -3.1367 H       
  36 H36            1.3169     5.2221    -3.1468 H       
  37 H37            0.7909     3.5813    -3.5932 H       
  38 H38           -0.5827     5.5726    -0.7637 H       
  39 H39            0.5026     4.8889     0.4703 H       
  40 H40            1.1486     5.9857    -0.7738 H       
  41 H41            0.7297    -1.8527     0.1988 H       
  42 H42            0.3420    -3.5856     0.0793 H       
  43 H43           -0.2859    -1.5628    -2.1316 H       
  44 H44            1.2011    -2.5387    -2.0926 H       
  45 H45           -0.4399    -3.5876    -3.4805 H       
  46 H46           -0.1309    -4.5606    -2.0382 H       
  47 H47           -3.2131    -4.8941    -0.9503 H       
  48 H48           -1.4628    -5.0808    -0.6916 H       
  49 H49           -2.1748    -3.9022     1.2368 H       
  50 H50           -3.3131    -2.8972     0.3183 H       
  51 H51           -1.3866    -5.8784    -3.3983 H       
  52 H52           -2.6540    -6.8647    -5.2631 H       
  53 H53           -4.6977    -5.7655    -6.0827 H       
  54 H54           -5.4804    -3.6778    -5.0407 H       
  55 H55           -4.2236    -2.6859    -3.1716 H       
@<TRIPOS>BOND
   1    1    2 2
   2    1    9 1
   3    1    6 1
   4    2    3 1
   5    2   28 1
   6    3    4 2
   7    3   15 1
   8    4    5 1
   9    4   29 1
  10    5    8 1
  11    5    6 am
  12    6    7 2
  13    8   11 1
  14    8   30 1
  15    8   31 1
  16    9   10 3
  17   11   12 1
  18   11   32 1
  19   11   33 1
  20   12   13 1
  21   12   14 1
  22   12   34 1
  23   13   35 1
  24   13   36 1
  25   13   37 1
  26   14   38 1
  27   14   39 1
  28   14   40 1
  29   15   16 1
  30   15   21 1
  31   16   17 1
  32   16   41 1
  33   16   42 1
  34   17   18 1
  35   17   43 1
  36   17   44 1
  37   18   19 1
  38   18   45 1
  39   18   46 1
  40   19   20 1
  41   19   22 1
  42   20   21 1
  43   20   47 1
  44   20   48 1
  45   21   49 1
  46   21   50 1
  47   22   23 ar
  48   22   27 ar
  49   23   24 ar
  50   23   51 1
  51   24   25 ar
  52   24   52 1
  53   25   26 ar
  54   25   53 1
  55   26   27 ar
  56   26   54 1
  57   27   55 1

#	End of record

