#	Name: ASD00840145
#	Creating user name:	WinNT
#	Creation time:	15. 06. 2019 18:37

#	Modifying user name:	WinNT
#	Modification time:	15. 06. 2019 18:37

#	Program:	/corina/corina34_cracker 3.40 0067  02.08.2006

@<TRIPOS>MOLECULE
ASD00840145
  57   60    0    0    0
SMALL
NO_CHARGES


@<TRIPOS>ATOM
   1 N1            -0.0161     1.3391     0.0094 N.am    
   2 C2             0.0021    -0.0041     0.0020 C.2     
   3 C3             1.4545    -0.4308    -0.0141 C.3     
   4 C4             2.2193     0.8733    -0.0144 C.ar    
   5 C5             3.5599     1.1658    -0.0256 C.ar    
   6 C6             3.9812     2.4999    -0.0225 C.ar    
   7 C7             3.0260     3.5240    -0.0079 C.ar    
   8 C8             1.6825     3.2173     0.0033 C.ar    
   9 C9             1.2639     1.8862     0.0001 C.ar    
  10 C10            5.3778     2.8158    -0.0337 C.1     
  11 N11            6.4858     3.0665    -0.0425 N.1     
  12 O12           -0.9639    -0.7374     0.0077 O.2     
  13 F13            3.4225     4.8155    -0.0043 F       
  14 C14            1.6038    -0.6900     2.4825 C.ar    
  15 C15            1.7824    -1.2353     1.2173 C.ar    
  16 C16            2.2651    -2.5271     1.1029 C.ar    
  17 C17            2.5535    -3.2314     2.2640 C.ar    
  18 C18            2.3517    -2.6267     3.4884 C.ar    
  19 N19            1.8900    -1.3928     3.5656 N.ar    
  20 O20            1.1366     0.5775     2.6080 O.3     
  21 C21            0.9746     1.0807     3.9356 C.3     
  22 C22            0.4426     2.5140     3.8764 C.3     
  23 S23           -1.4043     2.2420     0.0210 S.o2    
  24 O24           -1.0620     3.5112    -0.5187 O.2     
  25 O25           -2.4248     1.4159    -0.5224 O.2     
  26 C26           -1.8329     2.5178     1.7077 C.ar    
  27 C27           -2.1882     1.4476     2.5168 C.ar    
  28 C28           -2.5253     1.6652     3.8436 C.ar    
  29 C29           -2.5067     2.9522     4.3591 C.ar    
  30 C30           -2.1509     4.0189     3.5462 C.ar    
  31 C31           -1.8097     3.7986     2.2252 C.ar    
  32 O32           -2.8371     3.1688     5.6594 O.3     
  33 C33           -2.7962     4.5200     6.1227 C.3     
  34 O34           -2.2059     0.1873     2.0086 O.3     
  35 C35           -2.5811    -0.8659     2.8985 C.3     
  36 N36            1.7511    -1.2020    -1.2287 N.3     
  37 H37            4.2880     0.3682    -0.0365 H       
  38 H38            0.9502     4.0110     0.0149 H       
  39 H39            2.4137    -2.9772     0.1325 H       
  40 H40            2.9313    -4.2417     2.2099 H       
  41 H41            2.5741    -3.1704     4.3947 H       
  42 H42            0.2680     0.4530     4.4785 H       
  43 H43            1.9369     1.0712     4.4477 H       
  44 H44            1.1492     3.1418     3.3336 H       
  45 H45           -0.5196     2.5235     3.3644 H       
  46 H46            0.3191     2.8979     4.8891 H       
  47 H47           -2.8023     0.8337     4.4747 H       
  48 H48           -2.1363     5.0215     3.9472 H       
  49 H49           -1.5288     4.6296     1.5952 H       
  50 H50           -1.7861     4.9131     6.0079 H       
  51 H51           -3.4901     5.1253     5.5395 H       
  52 H52           -3.0812     4.5523     7.1743 H       
  53 H53           -1.8856    -0.8980     3.7372 H       
  54 H54           -3.5899    -0.6856     3.2699 H       
  55 H55           -2.5541    -1.8173     2.3674 H       
  56 H56            1.1960    -2.0437    -1.2672 H       
  57 H57            1.6144    -0.6406    -2.0559 H       
@<TRIPOS>BOND
   1    1    2 am
   2    1    9 1
   3    1   23 am
   4    2    3 1
   5    2   12 2
   6    3    4 1
   7    3   15 1
   8    3   36 1
   9    4    5 ar
  10    4    9 ar
  11    5    6 ar
  12    5   37 1
  13    6    7 ar
  14    6   10 1
  15    7    8 ar
  16    7   13 1
  17    8    9 ar
  18    8   38 1
  19   10   11 3
  20   14   15 ar
  21   14   19 ar
  22   14   20 1
  23   15   16 ar
  24   16   17 ar
  25   16   39 1
  26   17   18 ar
  27   17   40 1
  28   18   19 ar
  29   18   41 1
  30   20   21 1
  31   21   22 1
  32   21   42 1
  33   21   43 1
  34   22   44 1
  35   22   45 1
  36   22   46 1
  37   23   24 2
  38   23   25 2
  39   23   26 1
  40   26   27 ar
  41   26   31 ar
  42   27   28 ar
  43   27   34 1
  44   28   29 ar
  45   28   47 1
  46   29   30 ar
  47   29   32 1
  48   30   31 ar
  49   30   48 1
  50   31   49 1
  51   32   33 1
  52   33   50 1
  53   33   51 1
  54   33   52 1
  55   34   35 1
  56   35   53 1
  57   35   54 1
  58   35   55 1
  59   36   56 1
  60   36   57 1

#	End of record

