#	Name: ASD03330969
#	Creating user name:	WinNT
#	Creation time:	15. 06. 2019 20:38

#	Modifying user name:	WinNT
#	Modification time:	15. 06. 2019 20:38

#	Program:	/corina/corina34_cracker 3.40 0067  02.08.2006

@<TRIPOS>MOLECULE
ASD03330969
  57   59    0    0    0
SMALL
NO_CHARGES


@<TRIPOS>ATOM
   1 N1            -0.4940     1.2308     0.6507 N.pl3   
   2 C2            -0.4203    -0.1264     0.6058 C.2     
   3 C3             0.8440    -0.9402     0.6987 C.3     
   4 N4             1.6535    -0.4467     1.8238 N.3     
   5 C5             2.5515     0.6289     1.3993 C.3     
   6 C6             1.9103     1.4747     0.3029 C.3     
   7 C7             0.6397     2.1406     0.8381 C.3     
   8 C8            -1.8064     1.5738     0.5022 C.2     
   9 N9            -2.5162     0.4755     0.3887 N.2     
  10 C10           -1.6903    -0.5922     0.4515 C.2     
  11 C11           -2.0922    -2.0074     0.3673 C.2     
  12 O12           -1.2514    -2.8835     0.4363 O.2     
  13 N13           -3.3915    -2.3309     0.2137 N.am    
  14 C14           -2.3400     2.9526     0.4744 C.ar    
  15 C15           -3.2490     3.3330    -0.5167 C.ar    
  16 C16           -3.7447     4.6225    -0.5376 C.ar    
  17 C17           -3.3419     5.5374     0.4209 C.ar    
  18 C18           -2.4391     5.1650     1.4070 C.ar    
  19 C19           -1.9422     3.8769     1.4410 C.ar    
  20 F20           -2.0497     6.0627     2.3385 F       
  21 F21           -3.8293     6.7972     0.3957 F       
  22 F22           -3.6419     2.4416    -1.4527 F       
  23 C23            2.4041    -1.5418     2.4525 C.3     
  24 C24           -3.6512    -4.2226    -1.3145 C.3     
  25 C25           -3.7911    -3.7378     0.1299 C.3     
  26 C26           -5.2470    -3.8820     0.5775 C.3     
  27 C27           -5.7089    -5.3235     0.3541 C.3     
  28 C28           -5.3606    -3.5345     2.0632 C.3     
  29 C29           -6.1275    -2.9323    -0.2372 C.3     
  30 O30           -4.5276    -3.4708    -2.1563 O.3     
  31 H31            0.5918    -1.9878     0.8632 H       
  32 H32            1.4095    -0.8417    -0.2279 H       
  33 H33            2.7786     1.2645     2.2552 H       
  34 H34            3.4770     0.1945     1.0213 H       
  35 H35            2.6132     2.2425    -0.0203 H       
  36 H36            1.6562     0.8377    -0.5443 H       
  37 H37            0.4570     3.0673     0.2940 H       
  38 H38            0.7612     2.3576     1.8993 H       
  39 H39           -4.0620    -1.6322     0.1586 H       
  40 H40           -4.4472     4.9176    -1.3030 H       
  41 H41           -1.2431     3.5870     2.2114 H       
  42 H42            3.0156    -2.0414     1.7011 H       
  43 H43            3.0470    -1.1392     3.2352 H       
  44 H44            1.7065    -2.2575     2.8877 H       
  45 H45           -2.6220    -4.0846    -1.6460 H       
  46 H46           -3.9121    -5.2795    -1.3699 H       
  47 H47           -3.1508    -4.3366     0.7777 H       
  48 H48           -5.0816    -6.0000     0.9345 H       
  49 H49           -6.7461    -5.4262     0.6730 H       
  50 H50           -5.6279    -5.5710    -0.7043 H       
  51 H51           -5.0316    -2.5076     2.2223 H       
  52 H52           -6.3979    -3.6373     2.3821 H       
  53 H53           -4.7334    -4.2111     2.6436 H       
  54 H54           -6.1946    -3.2905    -1.2645 H       
  55 H55           -7.1249    -2.8959     0.2009 H       
  56 H56           -5.6901    -1.9339    -0.2283 H       
  57 H57           -4.4916    -3.7250    -3.0886 H       
@<TRIPOS>BOND
   1    1    2 1
   2    1    7 1
   3    1    8 1
   4    2    3 1
   5    2   10 2
   6    3    4 1
   7    3   31 1
   8    3   32 1
   9    4    5 1
  10    4   23 1
  11    5    6 1
  12    5   33 1
  13    5   34 1
  14    6    7 1
  15    6   35 1
  16    6   36 1
  17    7   37 1
  18    7   38 1
  19    8    9 2
  20    8   14 1
  21    9   10 1
  22   10   11 1
  23   11   12 2
  24   11   13 am
  25   13   25 1
  26   13   39 1
  27   14   15 ar
  28   14   19 ar
  29   15   16 ar
  30   15   22 1
  31   16   17 ar
  32   16   40 1
  33   17   18 ar
  34   17   21 1
  35   18   19 ar
  36   18   20 1
  37   19   41 1
  38   23   42 1
  39   23   43 1
  40   23   44 1
  41   24   30 1
  42   24   25 1
  43   24   45 1
  44   24   46 1
  45   25   26 1
  46   25   47 1
  47   26   27 1
  48   26   28 1
  49   26   29 1
  50   27   48 1
  51   27   49 1
  52   27   50 1
  53   28   51 1
  54   28   52 1
  55   28   53 1
  56   29   54 1
  57   29   55 1
  58   29   56 1
  59   30   57 1

#	End of record

