#	Name: ASD03331833
#	Creating user name:	WinNT
#	Creation time:	15. 06. 2019 20:39

#	Modifying user name:	WinNT
#	Modification time:	15. 06. 2019 20:39

#	Program:	/corina/corina34_cracker 3.40 0067  02.08.2006

@<TRIPOS>MOLECULE
ASD03331833
  43   46    0    0    0
SMALL
NO_CHARGES


@<TRIPOS>ATOM
   1 C1             0.0534     1.5691    -0.0485 C.2     
   2 C2             0.2000     0.1156    -0.1037 C.ar    
   3 C3             1.5833    -0.1395    -0.1645 C.ar    
   4 N4             2.2282     1.0775    -0.1471 N.pl3   
   5 C5             1.3035     2.0938    -0.0776 C.2     
   6 C6            -0.7057    -0.9492    -0.1068 C.ar    
   7 C7            -0.2430    -2.2329    -0.1687 C.ar    
   8 C8             1.1203    -2.4892    -0.2288 C.ar    
   9 C9             2.0309    -1.4552    -0.2259 C.ar    
  10 C10            1.6237     3.5372    -0.0410 C.ar    
  11 C11            2.6398     4.0087     0.7913 C.ar    
  12 C12            2.9339     5.3563     0.8203 C.ar    
  13 C13            2.2237     6.2397     0.0270 C.ar    
  14 C14            1.2151     5.7787    -0.8003 C.ar    
  15 C15            0.9150     4.4327    -0.8430 C.ar    
  16 C16           -1.2408     2.3381     0.0209 C.3     
  17 C17           -2.0784     1.8221     1.1927 C.3     
  18 C18           -2.0056     2.1513    -1.2640 C.ar    
  19 N19           -1.3875     2.1117     2.4517 N.pl3   
  20 O20           -0.8919     3.2089     2.6360 O.2     
  21 O21           -1.3087     1.2552     3.3141 O.2     
  22 C22           -3.5331     0.8922    -2.5987 C.ar    
  23 C23           -3.3716     1.8424    -3.5957 C.ar    
  24 C24           -2.5214     2.9097    -3.3773 C.ar    
  25 N25           -1.8724     3.0326    -2.2357 N.ar    
  26 C26           -2.8343     1.0550    -1.4125 C.ar    
  27 H27            3.1900     1.1996    -0.1791 H       
  28 H28           -1.7676    -0.7576    -0.0599 H       
  29 H29           -0.9432    -3.0552    -0.1707 H       
  30 H30            1.4706    -3.5096    -0.2774 H       
  31 H31            3.0892    -1.6656    -0.2731 H       
  32 H32            3.1945     3.3202     1.4115 H       
  33 H33            3.7200     5.7225     1.4640 H       
  34 H34            2.4573     7.2938     0.0540 H       
  35 H35            0.6644     6.4734    -1.4171 H       
  36 H36            0.1303     4.0735    -1.4923 H       
  37 H37           -1.0269     3.3971     0.1657 H       
  38 H38           -3.0502     2.3157     1.1897 H       
  39 H39           -2.2173     0.7455     1.0937 H       
  40 H40           -4.1909     0.0476    -2.7414 H       
  41 H41           -3.9004     1.7474    -4.5325 H       
  42 H42           -2.3901     3.6540    -4.1487 H       
  43 H43           -2.9359     0.3342    -0.6147 H       
@<TRIPOS>BOND
   1    1    2 1
   2    1    5 2
   3    1   16 1
   4    2    3 ar
   5    2    6 ar
   6    3    4 1
   7    3    9 ar
   8    4    5 1
   9    4   27 1
  10    5   10 1
  11    6    7 ar
  12    6   28 1
  13    7    8 ar
  14    7   29 1
  15    8    9 ar
  16    8   30 1
  17    9   31 1
  18   10   11 ar
  19   10   15 ar
  20   11   12 ar
  21   11   32 1
  22   12   13 ar
  23   12   33 1
  24   13   14 ar
  25   13   34 1
  26   14   15 ar
  27   14   35 1
  28   15   36 1
  29   16   17 1
  30   16   18 1
  31   16   37 1
  32   17   19 1
  33   17   38 1
  34   17   39 1
  35   18   26 ar
  36   18   25 ar
  37   19   20 2
  38   19   21 2
  39   22   23 ar
  40   22   26 ar
  41   22   40 1
  42   23   24 ar
  43   23   41 1
  44   24   25 ar
  45   24   42 1
  46   26   43 1

#	End of record

