#	Name: ASD02100010
#	Creating user name:	WinNT
#	Creation time:	15. 06. 2019 20:18

#	Modifying user name:	WinNT
#	Modification time:	15. 06. 2019 20:18

#	Program:	/corina/corina34_cracker 3.40 0067  02.08.2006

@<TRIPOS>MOLECULE
ASD02100010
  25   24    0    0    0
SMALL
NO_CHARGES


@<TRIPOS>ATOM
   1 C1            -0.0184     1.5028     0.0103 C.2     
   2 N2             1.3055    -0.4734    -0.4867 N.3     
   3 C3             0.0021    -0.0041     0.0020 C.3     
   4 C4            -0.2279    -0.5251     1.4221 C.3     
   5 C5            -0.3315    -2.0513     1.3948 C.3     
   6 C6            -0.5615    -2.5723     2.8149 C.3     
   7 N7            -0.6607    -4.0337     2.7888 N.am    
   8 C8            -0.8645    -4.7158     3.9332 C.2     
   9 O9            -0.9660    -4.1183     4.9873 O.2     
  10 N10           -0.9558    -6.0603     3.9092 N.am    
  11 O11            1.0197     2.1211     0.0037 O.2     
  12 O12           -1.1898     2.1580     0.0194 O.3     
  13 H13            2.0536    -0.1430     0.1043 H       
  14 H14            1.3222    -1.4794    -0.5627 H       
  15 H15           -0.7864    -0.3745    -0.6531 H       
  16 H16            0.6068    -0.2288     2.0574 H       
  17 H17           -1.1526    -0.1051     1.8179 H       
  18 H18           -1.1662    -2.3475     0.7595 H       
  19 H19            0.5932    -2.4712     0.9991 H       
  20 H20            0.2732    -2.2761     3.4502 H       
  21 H21           -1.4862    -2.1523     3.2107 H       
  22 H22           -0.5798    -4.5104     1.9479 H       
  23 H23           -0.8748    -6.5369     3.0683 H       
  24 H24           -1.1024    -6.5512     4.7329 H       
  25 H25           -1.1523     3.1243     0.0245 H       
@<TRIPOS>BOND
   1    1    3 1
   2    1   11 2
   3    1   12 1
   4    2    3 1
   5    2   13 1
   6    2   14 1
   7    3    4 1
   8    3   15 1
   9    4    5 1
  10    4   16 1
  11    4   17 1
  12    5    6 1
  13    5   18 1
  14    5   19 1
  15    6    7 1
  16    6   20 1
  17    6   21 1
  18    7    8 am
  19    7   22 1
  20    8    9 2
  21    8   10 am
  22   10   23 1
  23   10   24 1
  24   12   25 1

#	End of record

