#	Name: ASD00841984
#	Creating user name:	WinNT
#	Creation time:	15. 06. 2019 18:43

#	Modifying user name:	WinNT
#	Modification time:	15. 06. 2019 18:43

#	Program:	/corina/corina34_cracker 3.40 0067  02.08.2006

@<TRIPOS>MOLECULE
ASD00841984
 102  107    0    0    0
SMALL
NO_CHARGES


@<TRIPOS>ATOM
   1 C1             1.0631     1.5467    -0.5395 C.ar    
   2 C2             1.3507     0.2029    -0.7282 C.ar    
   3 C3             1.2581    -0.6803     0.3378 C.ar    
   4 C4             0.8800    -0.2198     1.5839 C.ar    
   5 C5             0.5934     1.1203     1.7694 C.ar    
   6 C6             0.6853     2.0024     0.7089 C.ar    
   7 C7             1.5694    -2.1410     0.1362 C.3     
   8 C8             1.2727    -2.9257     1.3964 C.2     
   9 C9             0.7719    -2.6999    -1.0438 C.3     
  10 C10           -0.6950    -2.4263    -0.8334 C.2     
  11 N11           -1.6030    -2.9147    -1.7015 N.am    
  12 O12           -1.0586    -1.7666     0.1171 O.2     
  13 C13           -3.0273    -2.5693    -1.5782 C.3     
  14 C14           -3.5267    -2.0702    -2.9382 C.3     
  15 N15           -3.2172    -3.0716    -3.9675 N.3     
  16 C16           -1.7672    -3.2594    -4.1093 C.3     
  17 C17           -1.1949    -3.8024    -2.8009 C.3     
  18 C18           -3.8297    -2.7115    -5.2533 C.3     
  19 C19           -3.3850    -3.7069    -6.3284 C.3     
  20 C20           -4.0737    -3.3630    -7.6511 C.3     
  21 N21           -5.5304    -3.4226    -7.4760 N.3     
  22 C22           -5.9863    -2.4423    -6.4823 C.3     
  23 C23           -5.3547    -2.7586    -5.1247 C.3     
  24 C24           -6.2230    -3.2340    -8.7577 C.3     
  25 O25            0.1927    -3.0394     1.9363 O.2     
  26 N26            2.4297    -3.4730     1.8041 N.am    
  27 C27            3.0522    -2.3420    -0.0798 C.ar    
  28 C28            3.4924    -3.1525     0.9639 C.ar    
  29 C29            3.9215    -1.8933    -1.0415 C.ar    
  30 C30            5.2730    -2.2512    -0.9797 C.ar    
  31 C31            5.7227    -3.0657     0.0665 C.ar    
  32 C32            4.8389    -3.5112     1.0261 C.ar    
  33 F33            7.0254    -3.4169     0.1351 F       
  34 C34            2.3015    -6.0881     2.6522 C.ar    
  35 C35            1.0572    -6.4722     2.1732 C.ar    
  36 C36            3.3277    -7.0104     2.7308 C.ar    
  37 C37            3.1177    -8.3165     2.3326 C.ar    
  38 C38            1.8748    -8.7056     1.8527 C.ar    
  39 C39            0.8438    -7.7825     1.7733 C.ar    
  40 O40            1.6687    -9.9907     1.4615 O.3     
  41 O41            0.0483    -5.5649     2.0965 O.3     
  42 C42            2.7756   -10.8877     1.5714 C.3     
  43 C43           -1.2058    -6.0302     1.5937 C.3     
  44 C44           -2.2102    -4.8760     1.5815 C.3     
  45 C45           -7.7276    -3.4260    -8.5575 C.3     
  46 C46           -5.9540    -1.8211    -9.2796 C.3     
  47 C47            6.1885    -1.7886    -1.9789 C.1     
  48 N48            6.9148    -1.4215    -2.7715 N.1     
  49 O49            1.7221    -0.2478    -1.9553 O.3     
  50 C50            2.2336     0.0378    -4.3000 C.3     
  51 C51            1.6870     0.6933    -3.0301 C.3     
  52 S52            2.5755    -4.4214     3.1538 S.o2    
  53 O53            3.9364    -4.3417     3.5551 O.2     
  54 O54            1.4924    -4.0756     4.0061 O.2     
  55 H55            1.1387     2.2370    -1.3667 H       
  56 H56            0.8078    -0.9069     2.4140 H       
  57 H57            0.2972     1.4783     2.7443 H       
  58 H58            0.4609     3.0485     0.8563 H       
  59 H59            1.1024    -2.2206    -1.9653 H       
  60 H60            0.9343    -3.7754    -1.1153 H       
  61 H61           -3.5938    -3.4521    -1.2816 H       
  62 H62           -3.1504    -1.7841    -0.8322 H       
  63 H63           -4.6046    -1.9141    -2.8950 H       
  64 H64           -3.0323    -1.1305    -3.1847 H       
  65 H65           -1.5691    -3.9658    -4.9154 H       
  66 H66           -1.2974    -2.3032    -4.3395 H       
  67 H67           -0.1071    -3.8350    -2.8628 H       
  68 H68           -1.5843    -4.8040    -2.6187 H       
  69 H69           -3.5180    -1.7061    -5.5364 H       
  70 H70           -2.3040    -3.6473    -6.4548 H       
  71 H71           -3.6615    -4.7169    -6.0260 H       
  72 H72           -3.7858    -2.3581    -7.9600 H       
  73 H73           -3.7702    -4.0786    -8.4154 H       
  74 H74           -5.6895    -1.4417    -6.7966 H       
  75 H75           -7.0720    -2.4890    -6.3975 H       
  76 H76           -5.6622    -3.7537    -4.8033 H       
  77 H77           -5.6810    -2.0216    -4.3909 H       
  78 H78           -5.8564    -3.9639    -9.4795 H       
  79 H79            3.5637    -1.2657    -1.8444 H       
  80 H80            5.1912    -4.1394     1.8309 H       
  81 H81            4.2955    -6.7095     3.1039 H       
  82 H82            3.9214    -9.0353     2.3943 H       
  83 H83           -0.1241    -8.0835     1.4005 H       
  84 H84            2.4766   -11.8777     1.2270 H       
  85 H85            3.6004   -10.5237     0.9587 H       
  86 H86            3.0943   -10.9459     2.6121 H       
  87 H87           -1.0733    -6.4073     0.5797 H       
  88 H88           -1.5793    -6.8301     2.2330 H       
  89 H89           -3.1668    -5.2309     1.1980 H       
  90 H90           -2.3426    -4.4989     2.5956 H       
  91 H91           -1.8367    -4.0761     0.9422 H       
  92 H92           -8.0941    -2.6961    -7.8356 H       
  93 H93           -8.2415    -3.2860    -9.5085 H       
  94 H94           -7.9192    -4.4325    -8.1857 H       
  95 H95           -4.8821    -1.6844    -9.4222 H       
  96 H96           -6.4679    -1.6812   -10.2306 H       
  97 H97           -6.3205    -1.0913    -8.5577 H       
  98 H98            2.2888     0.7794    -5.0968 H       
  99 H99            3.2294    -0.3597    -4.1039 H       
 100 H100           1.5719    -0.7734    -4.6038 H       
 101 H101           0.6588     1.0128    -3.1999 H       
 102 H102           2.2991     1.5585    -2.7756 H       
@<TRIPOS>BOND
   1    1    2 ar
   2    1    6 ar
   3    1   55 1
   4    2    3 ar
   5    2   49 1
   6    3    4 ar
   7    3    7 1
   8    4    5 ar
   9    4   56 1
  10    5    6 ar
  11    5   57 1
  12    6   58 1
  13    7    8 1
  14    7    9 1
  15    7   27 1
  16    8   25 2
  17    8   26 am
  18    9   10 1
  19    9   59 1
  20    9   60 1
  21   10   11 am
  22   10   12 2
  23   11   13 1
  24   11   17 1
  25   13   14 1
  26   13   61 1
  27   13   62 1
  28   14   15 1
  29   14   63 1
  30   14   64 1
  31   15   16 1
  32   15   18 1
  33   16   17 1
  34   16   65 1
  35   16   66 1
  36   17   67 1
  37   17   68 1
  38   18   19 1
  39   18   23 1
  40   18   69 1
  41   19   20 1
  42   19   70 1
  43   19   71 1
  44   20   21 1
  45   20   72 1
  46   20   73 1
  47   21   22 1
  48   21   24 1
  49   22   23 1
  50   22   74 1
  51   22   75 1
  52   23   76 1
  53   23   77 1
  54   24   45 1
  55   24   46 1
  56   24   78 1
  57   26   52 am
  58   26   28 1
  59   27   28 ar
  60   27   29 ar
  61   28   32 ar
  62   29   30 ar
  63   29   79 1
  64   30   31 ar
  65   30   47 1
  66   31   32 ar
  67   31   33 1
  68   32   80 1
  69   34   35 ar
  70   34   36 ar
  71   34   52 1
  72   35   41 1
  73   35   39 ar
  74   36   37 ar
  75   36   81 1
  76   37   38 ar
  77   37   82 1
  78   38   39 ar
  79   38   40 1
  80   39   83 1
  81   40   42 1
  82   41   43 1
  83   42   84 1
  84   42   85 1
  85   42   86 1
  86   43   44 1
  87   43   87 1
  88   43   88 1
  89   44   89 1
  90   44   90 1
  91   44   91 1
  92   45   92 1
  93   45   93 1
  94   45   94 1
  95   46   95 1
  96   46   96 1
  97   46   97 1
  98   47   48 3
  99   49   51 1
 100   50   51 1
 101   50   98 1
 102   50   99 1
 103   50  100 1
 104   51  101 1
 105   51  102 1
 106   52   53 2
 107   52   54 2

#	End of record

