#	Name: ASD00170429
#	Creating user name:	WinNT
#	Creation time:	15. 06. 2019 18:32

#	Modifying user name:	WinNT
#	Modification time:	15. 06. 2019 18:32

#	Program:	/corina/corina34_cracker 3.40 0067  02.08.2006

@<TRIPOS>MOLECULE
ASD00170429
  67   71    0    0    0
SMALL
NO_CHARGES


@<TRIPOS>ATOM
   1 C1            -0.8063    -4.3015    -2.7715 C.2     
   2 C2            -1.7740    -4.0255    -1.8317 C.2     
   3 C3            -1.4656    -2.8584    -1.0367 C.2     
   4 C4            -0.3051    -2.2868    -1.3766 C.2     
   5 S5             0.4618    -3.1664    -2.6866 S.3     
   6 C6            -2.3586    -2.3397     0.0608 C.3     
   7 N7            -0.8541    -5.3572    -3.6577 N.pl3   
   8 C8            -2.9850    -4.8274    -1.6569 C.2     
   9 C9            -4.2390    -4.4295    -2.3317 C.ar    
  10 O10           -2.9603    -5.8226    -0.9554 O.2     
  11 C11           -5.3665    -5.2493    -2.2555 C.ar    
  12 C12           -6.5332    -4.8729    -2.8870 C.ar    
  13 C13           -6.5878    -3.6842    -3.5959 C.ar    
  14 C14           -5.4724    -2.8668    -3.6752 C.ar    
  15 C15           -4.3019    -3.2297    -3.0430 C.ar    
  16 Cl16          -8.0599    -3.2174    -4.3888 Cl      
  17 N17           -1.7539    -2.6377     1.3660 N.3     
  18 C18            0.2580    -1.0798    -0.7317 C.2     
  19 C19           -2.5808    -2.1136     2.4613 C.3     
  20 C20           -1.5247    -4.0802     1.5231 C.3     
  21 C21           -2.6205    -0.5861     2.3844 C.3     
  22 C22           -3.4818    -0.0403     3.5251 C.3     
  23 C23           -4.9026    -0.5943     3.4015 C.3     
  24 C24           -4.8628    -2.1219     3.4784 C.3     
  25 C25           -4.0016    -2.6677     2.3377 C.3     
  26 C26           -0.1418    -4.4395     0.9760 C.3     
  27 C27            0.0968    -5.9418     1.1396 C.3     
  28 C28            0.0232    -6.3115     2.6225 C.3     
  29 C29           -1.3598    -5.9522     3.1695 C.3     
  30 C30           -1.5984    -4.4498     3.0059 C.3     
  31 C31            1.4592    -0.3383    -1.1350 C.2     
  32 C32            1.5789     0.6770    -0.2633 C.2     
  33 O33            0.5708     0.6169     0.6198 O.3     
  34 C34           -0.2333    -0.4241     0.3535 C.2     
  35 H35           -2.4777    -1.2616    -0.0468 H       
  36 H36           -3.3340    -2.8216    -0.0062 H       
  37 H37           -1.5694    -6.0095    -3.5968 H       
  38 H38           -0.1724    -5.4473    -4.3419 H       
  39 H39           -5.3250    -6.1765    -1.7033 H       
  40 H40           -7.4059    -5.5065    -2.8290 H       
  41 H41           -5.5209    -1.9412    -4.2297 H       
  42 H42           -3.4328    -2.5915    -3.1054 H       
  43 H43           -2.1538    -2.4184     3.4167 H       
  44 H44           -2.2875    -4.6312     0.9729 H       
  45 H45           -1.6083    -0.1914     2.4724 H       
  46 H46           -3.0475    -0.2814     1.4289 H       
  47 H47           -3.0548    -0.3450     4.4806 H       
  48 H48           -3.5101     1.0480     3.4704 H       
  49 H49           -5.5162    -0.2055     4.2142 H       
  50 H50           -5.3296    -0.2896     2.4461 H       
  51 H51           -4.4358    -2.4266     4.4339 H       
  52 H52           -5.8750    -2.5166     3.3904 H       
  53 H53           -4.4285    -2.3630     1.3822 H       
  54 H54           -3.9732    -3.7559     2.3924 H       
  55 H55           -0.0893    -4.1761    -0.0804 H       
  56 H56            0.6210    -3.8884     1.5262 H       
  57 H57           -0.6659    -6.4929     0.5895 H       
  58 H58            1.0821    -6.1978     0.7499 H       
  59 H59            0.1932    -7.3818     2.7390 H       
  60 H60            0.7859    -5.7604     3.1726 H       
  61 H61           -2.1225    -6.5032     2.6194 H       
  62 H62           -1.4123    -6.2155     4.2259 H       
  63 H63           -0.8357    -3.8987     3.5561 H       
  64 H64           -2.5837    -4.1938     3.3957 H       
  65 H65            2.1139    -0.5634    -1.9639 H       
  66 H66            2.3612     1.4215    -0.2718 H       
  67 H67           -1.1172    -0.6981     0.9104 H       
@<TRIPOS>BOND
   1    1    2 2
   2    1    7 1
   3    1    5 1
   4    2    3 1
   5    2    8 1
   6    3    4 2
   7    3    6 1
   8    4    5 1
   9    4   18 1
  10    6   17 1
  11    6   35 1
  12    6   36 1
  13    7   37 1
  14    7   38 1
  15    8    9 1
  16    8   10 2
  17    9   11 ar
  18    9   15 ar
  19   11   12 ar
  20   11   39 1
  21   12   13 ar
  22   12   40 1
  23   13   14 ar
  24   13   16 1
  25   14   15 ar
  26   14   41 1
  27   15   42 1
  28   17   19 1
  29   17   20 1
  30   18   31 1
  31   18   34 2
  32   19   21 1
  33   19   25 1
  34   19   43 1
  35   20   26 1
  36   20   30 1
  37   20   44 1
  38   21   22 1
  39   21   45 1
  40   21   46 1
  41   22   23 1
  42   22   47 1
  43   22   48 1
  44   23   24 1
  45   23   49 1
  46   23   50 1
  47   24   25 1
  48   24   51 1
  49   24   52 1
  50   25   53 1
  51   25   54 1
  52   26   27 1
  53   26   55 1
  54   26   56 1
  55   27   28 1
  56   27   57 1
  57   27   58 1
  58   28   29 1
  59   28   59 1
  60   28   60 1
  61   29   30 1
  62   29   61 1
  63   29   62 1
  64   30   63 1
  65   30   64 1
  66   31   32 2
  67   31   65 1
  68   32   33 1
  69   32   66 1
  70   33   34 1
  71   34   67 1

#	End of record

