#	Name: ASD01120002
#	Creating user name:	WinNT
#	Creation time:	15. 06. 2019 18:58

#	Modifying user name:	WinNT
#	Modification time:	15. 06. 2019 18:58

#	Program:	/corina/corina34_cracker 3.40 0067  02.08.2006

@<TRIPOS>MOLECULE
ASD01120002
  29   31    0    0    0
SMALL
NO_CHARGES


@<TRIPOS>ATOM
   1 C1            -0.1470     0.6861     0.7990 C.ar    
   2 C2            -0.2687    -0.6943     0.7393 C.ar    
   3 C3            -1.5076    -1.2810     0.5750 C.ar    
   4 C4            -2.6384    -0.4886     0.4688 C.ar    
   5 C5            -2.5205     0.9083     0.5286 C.ar    
   6 C6            -1.2638     1.4893     0.7001 C.ar    
   7 O7            -3.9554    -0.7539     0.3060 O.3     
   8 C8            -4.6175     0.4157     0.2670 C.2     
   9 N9            -3.7788     1.4116     0.3979 N.2     
  10 N10           -5.9790     0.5463     0.1120 N.am    
  11 S11           -6.6830     2.0424     0.2044 S.o2    
  12 C12           -6.4354     2.6349     1.8452 C.ar    
  13 C13           -7.0090     1.9706     2.9144 C.ar    
  14 C14           -6.8146     2.4360     4.2030 C.ar    
  15 C15           -6.0475     3.5643     4.4217 C.ar    
  16 C16           -5.4742     4.2291     3.3521 C.ar    
  17 C17           -5.6634     3.7603     2.0644 C.ar    
  18 Cl18           1.4187     1.4065     1.0065 Cl      
  19 Cl19          -4.5109     5.6470     3.6268 Cl      
  20 Cl20          -7.9732     0.5534     2.6396 Cl      
  21 O21           -5.9293     2.8939    -0.6477 O.2     
  22 O22           -8.0816     1.8374     0.0586 O.2     
  23 H23            0.6118    -1.3144     0.8215 H       
  24 H24           -1.5947    -2.3565     0.5291 H       
  25 H25           -1.1649     2.5637     0.7474 H       
  26 H26           -6.5260    -0.2379    -0.0513 H       
  27 H27           -7.2627     1.9175     5.0377 H       
  28 H28           -5.8958     3.9275     5.4274 H       
  29 H29           -5.2159     4.2792     1.2296 H       
@<TRIPOS>BOND
   1    1    2 ar
   2    1   18 1
   3    1    6 ar
   4    2    3 ar
   5    2   23 1
   6    3    4 ar
   7    3   24 1
   8    4    5 ar
   9    4    7 1
  10    5    6 ar
  11    5    9 1
  12    6   25 1
  13    7    8 1
  14    8    9 2
  15    8   10 1
  16   10   11 am
  17   10   26 1
  18   11   12 1
  19   11   21 2
  20   11   22 2
  21   12   13 ar
  22   12   17 ar
  23   13   14 ar
  24   13   20 1
  25   14   15 ar
  26   14   27 1
  27   15   16 ar
  28   15   28 1
  29   16   17 ar
  30   16   19 1
  31   17   29 1

#	End of record

