#	Name: ASD03740044
#	Creating user name:	WinNT
#	Creation time:	15. 06. 2019 20:46

#	Modifying user name:	WinNT
#	Modification time:	15. 06. 2019 20:46

#	Program:	/corina/corina34_cracker 3.40 0067  02.08.2006

@<TRIPOS>MOLECULE
ASD03740044
  29   31    0    0    0
SMALL
NO_CHARGES


@<TRIPOS>ATOM
   1 C1            -0.0167     1.3798     0.0096 C.ar    
   2 C2             0.0021    -0.0041     0.0020 C.ar    
   3 C3            -1.1971    -0.7098    -0.0008 C.ar    
   4 C4            -2.4072     0.0194     0.0068 C.ar    
   5 C5            -2.3457     1.4335     0.0191 C.ar    
   6 N6            -1.1597     2.0443     0.0185 N.ar    
   7 C7            -3.6525    -0.6225     0.0018 C.ar    
   8 C8            -4.7941     0.1219     0.0098 C.ar    
   9 C9            -4.7379     1.5130     0.0232 C.ar    
  10 C10           -3.5440     2.1677     0.0283 C.ar    
  11 N11           -1.2043    -2.0962    -0.0112 N.pl3   
  12 C12            1.2507     2.1986     0.0019 C.3     
  13 C13            2.4438     1.3471     0.4287 C.3     
  14 C14            2.4582     0.0711    -0.4211 C.3     
  15 C15            1.2791    -0.8020     0.0037 C.3     
  16 H16           -3.7075    -1.7011    -0.0086 H       
  17 H17           -5.7539    -0.3732     0.0054 H       
  18 H18           -5.6559     2.0819     0.0297 H       
  19 H19           -3.5180     3.2473     0.0393 H       
  20 H20           -0.3667    -2.5855    -0.0167 H       
  21 H21           -2.0468    -2.5768    -0.0131 H       
  22 H22            1.4245     2.5823    -1.0034 H       
  23 H23            1.1418     3.0358     0.6914 H       
  24 H24            3.3671     1.9039     0.2692 H       
  25 H25            2.3482     1.0844     1.4823 H       
  26 H26            2.3620     0.3308    -1.4753 H       
  27 H27            3.3916    -0.4679    -0.2587 H       
  28 H28            1.4606    -1.1878     1.0068 H       
  29 H29            1.1820    -1.6372    -0.6899 H       
@<TRIPOS>BOND
   1    1    2 ar
   2    1   12 1
   3    1    6 ar
   4    2    3 ar
   5    2   15 1
   6    3    4 ar
   7    3   11 1
   8    4    5 ar
   9    4    7 ar
  10    5    6 ar
  11    5   10 ar
  12    7    8 ar
  13    7   16 1
  14    8    9 ar
  15    8   17 1
  16    9   10 ar
  17    9   18 1
  18   10   19 1
  19   11   20 1
  20   11   21 1
  21   12   13 1
  22   12   22 1
  23   12   23 1
  24   13   14 1
  25   13   24 1
  26   13   25 1
  27   14   15 1
  28   14   26 1
  29   14   27 1
  30   15   28 1
  31   15   29 1

#	End of record

