#	Name: ASD01880755
#	Creating user name:	WinNT
#	Creation time:	15. 06. 2019 19:41

#	Modifying user name:	WinNT
#	Modification time:	15. 06. 2019 19:41

#	Program:	/corina/corina34_cracker 3.40 0067  02.08.2006

@<TRIPOS>MOLECULE
ASD01880755
  41   43    0    0    0
SMALL
NO_CHARGES


@<TRIPOS>ATOM
   1 N1            -0.0158     1.3136     0.0093 N.ar    
   2 C2             0.0021    -0.0041     0.0020 C.ar    
   3 N3             1.1320    -0.6826    -0.0124 N.ar    
   4 C4             2.2985    -0.0575    -0.0202 C.ar    
   5 C5             2.3211     1.3280    -0.0130 C.ar    
   6 C6             1.1121     2.0071     0.0022 C.ar    
   7 C7             3.6278     2.0786    -0.0209 C.3     
   8 O8             4.7118     1.1476    -0.0359 O.3     
   9 C9             5.9670     1.6635    -0.0446 C.ar    
  10 C10            7.0681     0.8129    -0.0593 C.ar    
  11 C11            8.3372     1.3361    -0.0685 C.ar    
  12 C12            8.5318     2.7213    -0.0634 C.ar    
  13 C13            7.4224     3.5712    -0.0490 C.ar    
  14 C14            6.1514     3.0410    -0.0447 C.ar    
  15 C15            9.7110     0.7133    -0.0846 C.3     
  16 N16           10.6659     1.8274    -0.0879 N.am    
  17 C17            9.9813     2.9840    -0.0757 C.2     
  18 O18           10.4866     4.0899    -0.0752 O.2     
  19 C19           -1.3043    -0.7553     0.0110 C.3     
  20 C20            7.6167     5.0656    -0.0427 C.3     
  21 I21            1.0708     4.1017     0.0132 I       
  22 C22           12.6201     1.6626    -1.5491 C.3     
  23 C23           12.1252     1.7000    -0.1019 C.3     
  24 H24            3.2205    -0.6198    -0.0317 H       
  25 H25            3.6788     2.7099    -0.9080 H       
  26 H26            3.6951     2.7003     0.8718 H       
  27 H27            6.9244    -0.2575    -0.0630 H       
  28 H28            5.2945     3.6984    -0.0340 H       
  29 H29            9.8545     0.0994     0.8046 H       
  30 H30            9.8377     0.1085    -0.9825 H       
  31 H31           -1.6295    -0.9309    -1.0145 H       
  32 H32           -1.1706    -1.7106     0.5184 H       
  33 H33           -2.0578    -0.1676     0.5355 H       
  34 H34            7.6545     5.4314    -1.0688 H       
  35 H35            6.7856     5.5379     0.4810 H       
  36 H36            8.5506     5.3085     0.4642 H       
  37 H37           13.7059     1.5678    -1.5595 H       
  38 H38           12.1761     0.8101    -2.0631 H       
  39 H39           12.3309     2.5833    -2.0559 H       
  40 H40           12.5693     2.5525     0.4120 H       
  41 H41           12.4144     0.7793     0.4049 H       
@<TRIPOS>BOND
   1    1    2 ar
   2    1    6 ar
   3    2    3 ar
   4    2   19 1
   5    3    4 ar
   6    4    5 ar
   7    4   24 1
   8    5    6 ar
   9    5    7 1
  10    6   21 1
  11    7    8 1
  12    7   25 1
  13    7   26 1
  14    8    9 1
  15    9   10 ar
  16    9   14 ar
  17   10   11 ar
  18   10   27 1
  19   11   12 ar
  20   11   15 1
  21   12   13 ar
  22   12   17 1
  23   13   14 ar
  24   13   20 1
  25   14   28 1
  26   15   16 1
  27   15   29 1
  28   15   30 1
  29   16   17 am
  30   16   23 1
  31   17   18 2
  32   19   31 1
  33   19   32 1
  34   19   33 1
  35   20   34 1
  36   20   35 1
  37   20   36 1
  38   22   23 1
  39   22   37 1
  40   22   38 1
  41   22   39 1
  42   23   40 1
  43   23   41 1

#	End of record

