#	Name: ASD01901288
#	Creating user name:	WinNT
#	Creation time:	15. 06. 2019 19:53

#	Modifying user name:	WinNT
#	Modification time:	15. 06. 2019 19:53

#	Program:	/corina/corina34_cracker 3.40 0067  02.08.2006

@<TRIPOS>MOLECULE
ASD01901288
  39   42    0    0    0
SMALL
NO_CHARGES


@<TRIPOS>ATOM
   1 C1            -0.0166     1.3750     0.0096 C.ar    
   2 C2             0.0021    -0.0041     0.0020 C.ar    
   3 C3             1.2078    -0.6830    -0.0131 C.ar    
   4 C4             2.4027     0.0149    -0.0208 C.ar    
   5 C5             2.3997     1.3941    -0.0134 C.ar    
   6 C6             1.1860     2.0866     0.0019 C.ar    
   7 C7             1.1748     3.5185     0.0093 C.1     
   8 C8             1.1655     4.6925     0.0153 C.1     
   9 C9             1.1543     6.1244     0.0226 C.ar    
  10 C10           -0.0666     8.1944     0.0502 C.ar    
  11 C11           -0.0605     6.8156     0.0432 C.ar    
  12 C12            2.3585     6.8349     0.0149 C.ar    
  13 C13            2.3437     8.2124     0.0219 C.ar    
  14 C14            1.1340     8.8967     0.0367 C.ar    
  15 N15            1.1239    10.2970     0.0438 N.am    
  16 N16            1.1320    12.2925     1.2785 N.am    
  17 C17            1.1411    10.9510     1.2168 C.2     
  18 C18            1.1025    10.9638    -1.1249 C.2     
  19 C19            1.1518    12.9542     2.5854 C.3     
  20 O20            1.0916    10.3579    -2.1808 O.2     
  21 O21            1.1653    10.3112     2.2506 O.2     
  22 C22            1.1049    13.0583     0.1291 C.2     
  23 Cl23          -1.5742     9.0547     0.0752 Cl      
  24 C24            1.0659    14.5608    -1.8625 C.2     
  25 S25            1.0880    14.8014    -0.1202 S.3     
  26 C26            1.0920    12.4408    -1.1093 C.2     
  27 N27            1.0712    13.3095    -2.1348 N.2     
  28 H28           -0.9584     1.9035     0.0169 H       
  29 H29           -0.9266    -0.5554     0.0083 H       
  30 H30            1.2163    -1.7630    -0.0187 H       
  31 H31            3.3399    -0.5217    -0.0323 H       
  32 H32            3.3330     1.9375    -0.0194 H       
  33 H33           -0.9928     6.2705     0.0533 H       
  34 H34            3.2991     6.3044     0.0038 H       
  35 H35            3.2737     8.7615     0.0164 H       
  36 H36            1.1726    12.2014     3.3735 H       
  37 H37            2.0386    13.5835     2.6606 H       
  38 H38            0.2590    13.5699     2.6944 H       
  39 H39            1.0496    15.3533    -2.5960 H       
@<TRIPOS>BOND
   1    1    2 ar
   2    1    6 ar
   3    1   28 1
   4    2    3 ar
   5    2   29 1
   6    3    4 ar
   7    3   30 1
   8    4    5 ar
   9    4   31 1
  10    5    6 ar
  11    5   32 1
  12    6    7 1
  13    7    8 3
  14    8    9 1
  15    9   12 ar
  16    9   11 ar
  17   10   11 ar
  18   10   14 ar
  19   10   23 1
  20   11   33 1
  21   12   13 ar
  22   12   34 1
  23   13   14 ar
  24   13   35 1
  25   14   15 1
  26   15   18 am
  27   15   17 am
  28   16   17 am
  29   16   22 1
  30   16   19 1
  31   17   21 2
  32   18   26 1
  33   18   20 2
  34   19   36 1
  35   19   37 1
  36   19   38 1
  37   22   26 2
  38   22   25 1
  39   24   25 1
  40   24   27 2
  41   24   39 1
  42   26   27 1

#	End of record

