#	Name: ASD01150463
#	Creating user name:	WinNT
#	Creation time:	15. 06. 2019 19:04

#	Modifying user name:	WinNT
#	Modification time:	15. 06. 2019 19:04

#	Program:	/corina/corina34_cracker 3.40 0067  02.08.2006

@<TRIPOS>MOLECULE
ASD01150463
  55   57    0    0    0
SMALL
NO_CHARGES


@<TRIPOS>ATOM
   1 C1             1.4293     1.9106     0.1415 C.ar    
   2 C2             1.4653     0.5301     0.1644 C.ar    
   3 C3            -0.2375     0.4534    -1.5261 C.ar    
   4 C4            -0.2767     1.8402    -1.5514 C.ar    
   5 C5             0.5578     2.5702    -0.7169 C.ar    
   6 N6             0.5214     3.9688    -0.7393 N.am    
   7 C7            -0.6619     4.6023    -0.6591 C.2     
   8 N8            -0.7337     5.9464    -0.6773 N.am    
   9 C9             0.3929     6.6820    -0.7774 C.2     
  10 C10            1.6904     5.9950    -0.8656 C.2     
  11 N11            1.7179     4.6886    -0.8392 N.2     
  12 O12            0.3362     7.8975    -0.7949 O.2     
  13 C13           -2.0363     6.6110    -0.5888 C.3     
  14 O14           -1.6844     3.9501    -0.5689 O.2     
  15 C15           -2.3739     6.8639     0.8579 C.ar    
  16 C16           -1.9880     8.0472     1.4600 C.ar    
  17 C17           -2.2964     8.2815     2.7861 C.ar    
  18 C18           -2.9938     7.3282     3.5137 C.ar    
  19 C19           -3.3799     6.1417     2.9073 C.ar    
  20 C20           -3.0741     5.9146     1.5793 C.ar    
  21 O21            2.8426     6.7074    -0.9677 O.3     
  22 C22            4.0601     5.9637    -1.0487 C.3     
  23 C23            0.6356    -0.1997    -0.6654 C.ar    
  24 N24           -1.0769    -0.2864    -2.3664 N.am    
  25 C25           -0.6437    -1.4453    -2.9009 C.2     
  26 C26           -1.5068    -2.1893    -3.8871 C.3     
  27 O27            0.4407    -1.8895    -2.5882 O.2     
  28 O28           -3.2979     7.5561     4.8185 O.3     
  29 C29           -2.7850     8.7542     5.4045 C.3     
  30 C30           -3.7294     9.9177     5.0959 C.3     
  31 C31           -2.6755     8.5744     6.9199 C.3     
  32 H32            2.0758     2.4781     0.7945 H       
  33 H33            2.1437     0.0198     0.8321 H       
  34 H34           -0.9549     2.3503    -2.2195 H       
  35 H35           -1.9972     7.5597    -1.1240 H       
  36 H36           -2.8003     5.9738    -1.0342 H       
  37 H37           -1.4448     8.7889     0.8932 H       
  38 H38           -1.9944     9.2058     3.2560 H       
  39 H39           -3.9230     5.3980     3.4716 H       
  40 H40           -3.3744     4.9911     1.1068 H       
  41 H41            4.9018     6.6519    -1.1263 H       
  42 H42            4.1724     5.3519    -0.1535 H       
  43 H43            4.0349     5.3199    -1.9279 H       
  44 H44            0.6662    -1.2791    -0.6451 H       
  45 H45           -1.9705     0.0348    -2.5641 H       
  46 H46           -2.4361    -1.6412    -4.0425 H       
  47 H47           -0.9773    -2.2828    -4.8352 H       
  48 H48           -1.7314    -3.1820    -3.4969 H       
  49 H49           -1.7990     8.9673     4.9917 H       
  50 H50           -3.8074    10.0458     4.0162 H       
  51 H51           -4.7155     9.7046     5.5086 H       
  52 H52           -3.3382    10.8316     5.5428 H       
  53 H53           -2.0027     7.7455     7.1398 H       
  54 H54           -2.2843     9.4883     7.3669 H       
  55 H55           -3.6616     8.3613     7.3327 H       
@<TRIPOS>BOND
   1    1    2 ar
   2    1    5 ar
   3    1   32 1
   4    2   23 ar
   5    2   33 1
   6    3    4 ar
   7    3   24 1
   8    3   23 ar
   9    4    5 ar
  10    4   34 1
  11    5    6 1
  12    6    7 am
  13    6   11 1
  14    7    8 am
  15    7   14 2
  16    8    9 am
  17    8   13 1
  18    9   10 1
  19    9   12 2
  20   10   11 2
  21   10   21 1
  22   13   15 1
  23   13   35 1
  24   13   36 1
  25   15   16 ar
  26   15   20 ar
  27   16   17 ar
  28   16   37 1
  29   17   18 ar
  30   17   38 1
  31   18   19 ar
  32   18   28 1
  33   19   20 ar
  34   19   39 1
  35   20   40 1
  36   21   22 1
  37   22   41 1
  38   22   42 1
  39   22   43 1
  40   23   44 1
  41   24   25 am
  42   24   45 1
  43   25   26 1
  44   25   27 2
  45   26   46 1
  46   26   47 1
  47   26   48 1
  48   28   29 1
  49   29   30 1
  50   29   31 1
  51   29   49 1
  52   30   50 1
  53   30   51 1
  54   30   52 1
  55   31   53 1
  56   31   54 1
  57   31   55 1

#	End of record

