#	Name: ASD01814778
#	Creating user name:	WinNT
#	Creation time:	15. 06. 2019 19:33

#	Modifying user name:	WinNT
#	Modification time:	15. 06. 2019 19:33

#	Program:	/corina/corina34_cracker 3.40 0067  02.08.2006

@<TRIPOS>MOLECULE
ASD01814778
  59   62    0    0    0
SMALL
NO_CHARGES


@<TRIPOS>ATOM
   1 C1             0.1526     0.6510     0.1657 C.2     
   2 C2             0.3511    -0.7184     0.3974 C.2     
   3 C3             1.6197    -1.2061     0.4952 C.2     
   4 C4             2.7100    -0.3273     0.3620 C.2     
   5 N5             2.4873     1.0062     0.1363 N.am    
   6 C6             1.2107     1.4810     0.0402 C.2     
   7 C7             4.0135    -0.8225     0.4615 C.2     
   8 C8             5.0853     0.0366     0.3314 C.2     
   9 C9             4.8449     1.3967     0.1005 C.2     
  10 C10            3.5218     1.8603     0.0063 C.2     
  11 O11            3.3077     3.0455    -0.1953 O.2     
  12 C12            5.9738     2.3370    -0.0425 C.2     
  13 O13            6.0855     3.3973     0.7995 O.3     
  14 C14            6.8846     2.1456    -0.9991 C.2     
  15 C15            4.2474    -2.2902     0.7108 C.3     
  16 N16            4.4598    -2.9767    -0.5704 N.3     
  17 C17            4.9231    -4.3540    -0.3589 C.3     
  18 C18            5.2720    -4.9889    -1.7070 C.3     
  19 C19            4.0326    -4.9799    -2.6060 C.3     
  20 C20            3.5418    -3.5388    -2.7708 C.3     
  21 C21            3.2430    -2.9460    -1.3919 C.3     
  22 C22            4.3855    -5.5492    -3.9560 C.ar    
  23 N23            5.6535    -5.6788    -4.2967 N.ar    
  24 C24            6.0095    -6.1744    -5.4720 C.ar    
  25 C25            5.0465    -6.5771    -6.3914 C.ar    
  26 C26            3.7086    -6.4532    -6.0622 C.ar    
  27 C27            3.3778    -5.9337    -4.8179 C.ar    
  28 N28            7.3575    -6.2928    -5.7900 N.pl3   
  29 C29            7.7585    -6.7366    -7.1273 C.3     
  30 C30            8.3773    -5.9739    -4.7877 C.3     
  31 C31            2.9719    -5.7933    -1.9897 C.1     
  32 N32            2.1533    -6.4211    -1.5140 N.1     
  33 H33           -0.8505     1.0424     0.0828 H       
  34 H34           -0.4956    -1.3812     0.4979 H       
  35 H35            1.7867    -2.2581     0.6738 H       
  36 H36            1.0450     2.5333    -0.1378 H       
  37 H37            6.0965    -0.3351     0.4069 H       
  38 H38            6.8560     3.9560     0.6283 H       
  39 H39            6.7521     1.3524    -1.7200 H       
  40 H40            7.7542     2.7839    -1.0522 H       
  41 H41            5.1280    -2.4159     1.3408 H       
  42 H42            3.3783    -2.7166     1.2118 H       
  43 H43            5.8072    -4.3460     0.2785 H       
  44 H44            4.1343    -4.9328     0.1217 H       
  45 H45            6.0703    -4.4187    -2.1820 H       
  46 H46            5.6010    -6.0163    -1.5511 H       
  47 H47            4.3129    -2.9458    -3.2626 H       
  48 H48            2.6346    -3.5302    -3.3750 H       
  49 H49            2.4621    -3.5313    -0.9064 H       
  50 H50            2.9069    -1.9153    -1.5048 H       
  51 H51            5.3393    -6.9806    -7.3495 H       
  52 H52            2.9388    -6.7575    -6.7559 H       
  53 H53            2.3426    -5.8244    -4.5301 H       
  54 H54            7.8680    -5.8705    -7.7799 H       
  55 H55            8.7088    -7.2667    -7.0645 H       
  56 H56            6.9969    -7.4029    -7.5326 H       
  57 H57            7.8924    -5.6645    -3.8618 H       
  58 H58            8.9903    -6.8553    -4.5998 H       
  59 H59            9.0078    -5.1645    -5.1557 H       
@<TRIPOS>BOND
   1    1    2 1
   2    1    6 2
   3    1   33 1
   4    2    3 2
   5    2   34 1
   6    3    4 1
   7    3   35 1
   8    4    5 1
   9    4    7 2
  10    5    6 1
  11    5   10 am
  12    6   36 1
  13    7   15 1
  14    7    8 1
  15    8    9 2
  16    8   37 1
  17    9   10 1
  18    9   12 1
  19   10   11 2
  20   12   13 1
  21   12   14 2
  22   13   38 1
  23   14   39 1
  24   14   40 1
  25   15   16 1
  26   15   41 1
  27   15   42 1
  28   16   17 1
  29   16   21 1
  30   17   18 1
  31   17   43 1
  32   17   44 1
  33   18   19 1
  34   18   45 1
  35   18   46 1
  36   19   20 1
  37   19   22 1
  38   19   31 1
  39   20   21 1
  40   20   47 1
  41   20   48 1
  42   21   49 1
  43   21   50 1
  44   22   23 ar
  45   22   27 ar
  46   23   24 ar
  47   24   25 ar
  48   24   28 1
  49   25   26 ar
  50   25   51 1
  51   26   27 ar
  52   26   52 1
  53   27   53 1
  54   28   29 1
  55   28   30 1
  56   29   54 1
  57   29   55 1
  58   29   56 1
  59   30   57 1
  60   30   58 1
  61   30   59 1
  62   31   32 3

#	End of record

