#	Name: ASD01410796
#	Creating user name:	WinNT
#	Creation time:	15. 06. 2019 19:18

#	Modifying user name:	WinNT
#	Modification time:	15. 06. 2019 19:18

#	Program:	/corina/corina34_cracker 3.40 0067  02.08.2006

@<TRIPOS>MOLECULE
ASD01410796
  50   51    0    0    0
SMALL
NO_CHARGES


@<TRIPOS>ATOM
   1 C1             0.7355     2.7986    -0.9671 C.ar    
   2 C2             1.9716     2.7763    -0.3245 C.ar    
   3 C3             3.0141     2.0638    -0.8953 C.ar    
   4 C4             2.7844     1.3981    -2.0894 C.ar    
   5 C5             1.5294     1.4636    -2.6731 C.ar    
   6 N6             0.5573     2.1473    -2.1098 N.ar    
   7 C7            -0.3908     3.5504    -0.3668 C.2     
   8 O8            -0.2346     4.1443     0.6818 O.2     
   9 N9            -1.5889     3.5757    -0.9837 N.am    
  10 C10           -2.6772     4.1823    -0.3648 C.ar    
  11 C11           -3.8452     3.4666    -0.1483 C.ar    
  12 C12           -4.9266     4.0781     0.4701 C.ar    
  13 C13           -4.8457     5.4082     0.8751 C.ar    
  14 C14           -3.7035     6.1255     0.6691 C.ar    
  15 C15           -2.5982     5.5249     0.0511 C.ar    
  16 O16           -6.0689     3.3767     0.6809 O.3     
  17 C17           -7.1442     4.0655     1.3223 C.3     
  18 C18           -8.3378     3.1201     1.4728 C.3     
  19 O19           -7.9914     2.0527     2.3575 O.3     
  20 C20           -9.0426     1.1078     2.5678 C.3     
  21 Cl21          -3.9546     1.8084    -0.6505 Cl      
  22 C22           -1.3694     6.2916    -0.1658 C.2     
  23 O23           -0.9230     6.9866     0.7230 O.2     
  24 C24           -0.6593     6.2175    -1.4930 C.3     
  25 C25            1.2750     0.7420    -3.9714 C.3     
  26 C26            1.7083     1.6283    -5.1409 C.3     
  27 C27            2.0755    -0.5617    -3.9956 C.3     
  28 H28            2.1153     3.3070     0.6051 H       
  29 H29            3.9837     2.0282    -0.4209 H       
  30 H30            3.5760     0.8342    -2.5604 H       
  31 H31           -1.6923     3.1711    -1.8592 H       
  32 H32           -5.6930     5.8751     1.3552 H       
  33 H33           -3.6497     7.1566     0.9861 H       
  34 H34           -6.8226     4.4042     2.3072 H       
  35 H35           -7.4357     4.9256     0.7195 H       
  36 H36           -9.1868     3.6689     1.8804 H       
  37 H37           -8.6033     2.7121     0.4975 H       
  38 H38           -9.3227     0.6580     1.6152 H       
  39 H39           -8.7006     0.3298     3.2503 H       
  40 H40           -9.9062     1.6148     2.9981 H       
  41 H41           -1.2507     5.6221    -2.1887 H       
  42 H42           -0.5313     7.2232    -1.8933 H       
  43 H43            0.3175     5.7534    -1.3571 H       
  44 H44            0.2121     0.5174    -4.0601 H       
  45 H45            2.7712     1.8529    -5.0522 H       
  46 H46            1.5243     1.1064    -6.0799 H       
  47 H47            1.1380     2.5571    -5.1236 H       
  48 H48            1.8915    -1.0836    -4.9347 H       
  49 H49            3.1384    -0.3371    -3.9070 H       
  50 H50            1.7668    -1.1931    -3.1625 H       
@<TRIPOS>BOND
   1    1    2 ar
   2    1    6 ar
   3    1    7 1
   4    2    3 ar
   5    2   28 1
   6    3    4 ar
   7    3   29 1
   8    4    5 ar
   9    4   30 1
  10    5    6 ar
  11    5   25 1
  12    7    8 2
  13    7    9 am
  14    9   10 1
  15    9   31 1
  16   10   11 ar
  17   10   15 ar
  18   11   12 ar
  19   11   21 1
  20   12   13 ar
  21   12   16 1
  22   13   14 ar
  23   13   32 1
  24   14   15 ar
  25   14   33 1
  26   15   22 1
  27   16   17 1
  28   17   18 1
  29   17   34 1
  30   17   35 1
  31   18   19 1
  32   18   36 1
  33   18   37 1
  34   19   20 1
  35   20   38 1
  36   20   39 1
  37   20   40 1
  38   22   23 2
  39   22   24 1
  40   24   41 1
  41   24   42 1
  42   24   43 1
  43   25   26 1
  44   25   27 1
  45   25   44 1
  46   26   45 1
  47   26   46 1
  48   26   47 1
  49   27   48 1
  50   27   49 1
  51   27   50 1

#	End of record

