#	Name: ASD01420156
#	Creating user name:	WinNT
#	Creation time:	15. 06. 2019 19:20

#	Modifying user name:	WinNT
#	Modification time:	15. 06. 2019 19:20

#	Program:	/corina/corina34_cracker 3.40 0067  02.08.2006

@<TRIPOS>MOLECULE
ASD01420156
  36   38    0    0    0
SMALL
NO_CHARGES


@<TRIPOS>ATOM
   1 C1            -0.0242     1.3793     0.0947 C.ar    
   2 C2            -0.0219     0.0501     0.4029 C.ar    
   3 C3             1.1825    -0.6247     0.6535 C.ar    
   4 C4             2.3932     0.0659     0.5877 C.ar    
   5 C5             1.1716     2.0867     0.0239 C.ar    
   6 O6             1.4639     3.3737    -0.2520 O.3     
   7 C7             2.3881     1.4215     0.2727 C.ar    
   8 C8             3.4331     2.4375     0.1185 C.2     
   9 C9             2.7932     3.5881    -0.1984 C.2     
  10 C10            4.9185     2.2416     0.2806 C.3     
  11 C11            3.4543     4.8858    -0.4486 C.ar    
  12 C12            4.5671     4.9540    -1.2892 C.ar    
  13 C13            5.1806     6.1664    -1.5203 C.ar    
  14 C14            4.6934     7.3192    -0.9184 C.ar    
  15 C15            3.5870     7.2557    -0.0816 C.ar    
  16 C16            2.9645     6.0479     0.1505 C.ar    
  17 O17            5.3013     8.5123    -1.1484 O.3     
  18 C18            1.1688    -2.0573     0.9854 C.2     
  19 C19           -0.0033    -2.7244     1.0491 C.2     
  20 C20           -0.0169    -4.1477     1.3789 C.2     
  21 O21            1.0278    -4.7318     1.5960 O.2     
  22 O22           -1.1883    -4.8143     1.4426 O.3     
  23 H23           -0.9591     1.8840    -0.0997 H       
  24 H24           -0.9568    -0.4881     0.4548 H       
  25 H25            3.3246    -0.4462     0.7796 H       
  26 H26            5.3688     2.0541    -0.6942 H       
  27 H27            5.3578     3.1385     0.7173 H       
  28 H28            5.1034     1.3905     0.9360 H       
  29 H29            4.9467     4.0578    -1.7574 H       
  30 H30            6.0416     6.2200    -2.1702 H       
  31 H31            3.2114     8.1544     0.3850 H       
  32 H32            2.1015     6.0000     0.7981 H       
  33 H33            4.9461     8.9948    -1.9074 H       
  34 H34            2.0964    -2.5759     1.1781 H       
  35 H35           -0.9309    -2.2058     0.8564 H       
  36 H36           -1.0964    -5.7503     1.6673 H       
@<TRIPOS>BOND
   1    1    2 ar
   2    1    5 ar
   3    1   23 1
   4    2    3 ar
   5    2   24 1
   6    3    4 ar
   7    3   18 1
   8    4    7 ar
   9    4   25 1
  10    5    7 ar
  11    5    6 1
  12    6    9 1
  13    7    8 1
  14    8    9 2
  15    8   10 1
  16    9   11 1
  17   10   26 1
  18   10   27 1
  19   10   28 1
  20   11   12 ar
  21   11   16 ar
  22   12   13 ar
  23   12   29 1
  24   13   14 ar
  25   13   30 1
  26   14   15 ar
  27   14   17 1
  28   15   16 ar
  29   15   31 1
  30   16   32 1
  31   17   33 1
  32   18   19 2
  33   18   34 1
  34   19   20 1
  35   19   35 1
  36   20   21 2
  37   20   22 1
  38   22   36 1

#	End of record

