#	Name: ASD01880531
#	Creating user name:	WinNT
#	Creation time:	15. 06. 2019 19:40

#	Modifying user name:	WinNT
#	Modification time:	15. 06. 2019 19:40

#	Program:	/corina/corina34_cracker 3.40 0067  02.08.2006

@<TRIPOS>MOLECULE
ASD01880531
  41   43    0    0    0
SMALL
NO_CHARGES


@<TRIPOS>ATOM
   1 N1            -0.0160     1.3131     0.0156 N.ar    
   2 C2             0.0023    -0.0045     0.0045 C.ar    
   3 N3             1.1324    -0.6827    -0.0158 N.ar    
   4 C4             2.2990    -0.0560    -0.0262 C.ar    
   5 C5             2.3193     1.3320    -0.0155 C.ar    
   6 C6             1.1109     2.0079     0.0062 C.ar    
   7 C7             3.6247     2.0849    -0.0264 C.3     
   8 O8             4.0810     2.2279    -1.3730 O.3     
   9 C9             5.2522     2.8875    -1.5599 C.ar    
  10 C10            5.7539     3.0622    -2.8460 C.ar    
  11 C11            6.9385     3.7300    -3.0338 C.ar    
  12 C12            7.6463     4.2373    -1.9390 C.ar    
  13 C13            7.1376     4.0594    -0.6495 C.ar    
  14 C14            5.9463     3.3929    -0.4672 C.ar    
  15 C15            7.7413     4.0840    -4.2608 C.3     
  16 N16            8.9231     4.8100    -3.7818 N.am    
  17 C17            8.8642     4.8961    -2.4418 C.2     
  18 O18            9.6975     5.4408    -1.7438 O.2     
  19 Cl19           3.7823    -0.9578    -0.0524 Cl      
  20 C20           10.7599     7.3505    -5.9120 C.3     
  21 C21            9.6440     6.7850    -5.0311 C.3     
  22 C22            9.9916     5.3514    -4.6253 C.3     
  23 C23            1.0790     3.5145     0.0185 C.3     
  24 F24            1.8131     4.0054    -1.0665 F       
  25 F25           -0.2458     3.9537    -0.0779 F       
  26 F26            1.6400     3.9831     1.2114 F       
  27 H27           -0.9337    -0.5432     0.0127 H       
  28 H28            3.4790     3.0710     0.4145 H       
  29 H29            4.3665     1.5343     0.5521 H       
  30 H30            5.2124     2.6725    -3.6953 H       
  31 H31            7.6765     4.4468     0.2026 H       
  32 H32            5.5536     3.2562     0.5295 H       
  33 H33            8.0452     3.1774    -4.7841 H       
  34 H34            7.1535     4.7201    -4.9225 H       
  35 H35           10.5123     8.3718    -6.2011 H       
  36 H36           11.6979     7.3473    -5.3569 H       
  37 H37           10.8644     6.7351    -6.8056 H       
  38 H38            9.5395     7.4004    -4.1375 H       
  39 H39            8.7060     6.7882    -5.5862 H       
  40 H40           10.9296     5.3482    -4.0701 H       
  41 H41           10.0961     4.7360    -5.5189 H       
@<TRIPOS>BOND
   1    1    2 ar
   2    1    6 ar
   3    2    3 ar
   4    2   27 1
   5    3    4 ar
   6    4    5 ar
   7    4   19 1
   8    5    6 ar
   9    5    7 1
  10    6   23 1
  11    7    8 1
  12    7   28 1
  13    7   29 1
  14    8    9 1
  15    9   10 ar
  16    9   14 ar
  17   10   11 ar
  18   10   30 1
  19   11   12 ar
  20   11   15 1
  21   12   13 ar
  22   12   17 1
  23   13   14 ar
  24   13   31 1
  25   14   32 1
  26   15   16 1
  27   15   33 1
  28   15   34 1
  29   16   17 am
  30   16   22 1
  31   17   18 2
  32   20   21 1
  33   20   35 1
  34   20   36 1
  35   20   37 1
  36   21   22 1
  37   21   38 1
  38   21   39 1
  39   22   40 1
  40   22   41 1
  41   23   24 1
  42   23   25 1
  43   23   26 1

#	End of record

