#	Name: ASD04882029
#	Creating user name:	WinNT
#	Creation time:	15. 06. 2019 20:53

#	Modifying user name:	WinNT
#	Modification time:	15. 06. 2019 20:53

#	Program:	/corina/corina34_cracker 3.40 0067  02.08.2006

@<TRIPOS>MOLECULE
ASD04882029
  75   79    0    0    0
SMALL
NO_CHARGES


@<TRIPOS>ATOM
   1 C1             1.0150    -0.3237    -1.2350 C.ar    
   2 C2             0.8427    -1.3018    -2.1970 C.ar    
   3 C3             1.8275    -1.5287    -3.1412 C.ar    
   4 C4             2.9866    -0.7784    -3.1261 C.ar    
   5 C5             3.1630     0.2052    -2.1610 C.ar    
   6 C6             2.1720     0.4304    -1.2142 C.ar    
   7 N7             4.3344     0.9657    -2.1425 N.3     
   8 C8             5.1014     0.7217    -0.9129 C.3     
   9 C9             6.4119     1.5103    -0.9674 C.3     
  10 N10            6.1137     2.9408    -1.1235 N.3     
  11 C11            5.3467     3.1848    -2.3531 C.3     
  12 C12            4.0362     2.3962    -2.2986 C.3     
  13 C13            7.2816     3.6989    -1.1051 C.ar    
  14 C14            7.6932     4.3673    -2.2520 C.ar    
  15 C15            8.8477     5.1188    -2.2381 C.ar    
  16 C16            9.6086     5.2112    -1.0698 C.ar    
  17 C17            9.1968     4.5398     0.0853 C.ar    
  18 C18            8.0354     3.7914     0.0687 C.ar    
  19 N19            7.6190     3.1175     1.2242 N.am    
  20 C20            8.5262     2.7319     2.1433 C.2     
  21 C21            8.1028     1.9460     3.3068 C.2     
  22 O22            9.6969     3.0360     2.0076 O.2     
  23 N23            6.8198     1.5333     3.5866 N.pl3   
  24 C24           10.8452     6.0157    -1.0554 C.2     
  25 O25           11.5067     6.0955    -0.0383 O.2     
  26 C26            8.9184     1.4809     4.3167 C.2     
  27 C27            8.1037     0.7839     5.2145 C.2     
  28 C28            6.8336     0.8316     4.7463 C.2     
  29 C29            4.0593    -1.0266    -4.1551 C.3     
  30 N30           11.2416     6.6622    -2.1696 N.am    
  31 C31           12.4695     7.4610    -2.1553 C.3     
  32 C32           12.6888     8.0839    -3.5354 C.3     
  33 C33           13.9712     8.9183    -3.5204 C.3     
  34 N34           14.1812     9.5147    -4.8419 N.am    
  35 C35           13.7066    10.7154    -5.2162 C.2     
  36 C36           14.9421     8.8809    -5.9251 C.3     
  37 C37           14.5343     9.6342    -7.2107 C.3     
  38 C38           14.1038    11.0091    -6.6461 C.3     
  39 O39           13.0543    11.4552    -4.5105 O.2     
  40 H40            0.2421    -0.1461    -0.5019 H       
  41 H41           -0.0628    -1.8903    -2.2108 H       
  42 H42            1.6899    -2.2937    -3.8910 H       
  43 H43            2.3059     1.1943    -0.4626 H       
  44 H44            4.5182     1.0445    -0.0505 H       
  45 H45            5.3206    -0.3425    -0.8263 H       
  46 H46            6.9692     1.3537    -0.0438 H       
  47 H47            7.0072     1.1684    -1.8141 H       
  48 H48            5.1274     4.2490    -2.4397 H       
  49 H49            5.9299     2.8619    -3.2155 H       
  50 H50            3.4789     2.5528    -3.2222 H       
  51 H51            3.4409     2.7381    -1.4519 H       
  52 H52            7.1068     4.2971    -3.1562 H       
  53 H53            9.1651     5.6368    -3.1311 H       
  54 H54            9.7829     4.6094     0.9897 H       
  55 H55            6.6777     2.9285     1.3628 H       
  56 H56            6.0362     1.7146     3.0444 H       
  57 H57            9.9853     1.6268     4.3985 H       
  58 H58            8.4298     0.2927     6.1193 H       
  59 H59            5.9723     0.3843     5.2201 H       
  60 H60            3.8322    -0.4629    -5.0599 H       
  61 H61            5.0232    -0.7062    -3.7596 H       
  62 H62            4.0984    -2.0903    -4.3899 H       
  63 H63           10.7138     6.5985    -2.9810 H       
  64 H64           12.3801     8.2514    -1.4100 H       
  65 H65           13.3163     6.8213    -1.9067 H       
  66 H66           12.7782     7.2936    -4.2807 H       
  67 H67           11.8420     8.7237    -3.7840 H       
  68 H68           13.8818     9.7086    -2.7751 H       
  69 H69           14.8180     8.2785    -3.2718 H       
  70 H70           16.0121     8.9890    -5.7479 H       
  71 H71           14.6770     7.8267    -6.0055 H       
  72 H72           15.3830     9.7401    -7.8865 H       
  73 H73           13.7019     9.1358    -7.7075 H       
  74 H74           13.2545    11.4020    -7.2051 H       
  75 H75           14.9375    11.7108    -6.6737 H       
@<TRIPOS>BOND
   1    1    2 ar
   2    1    6 ar
   3    1   40 1
   4    2    3 ar
   5    2   41 1
   6    3    4 ar
   7    3   42 1
   8    4    5 ar
   9    4   29 1
  10    5    6 ar
  11    5    7 1
  12    6   43 1
  13    7    8 1
  14    7   12 1
  15    8    9 1
  16    8   44 1
  17    8   45 1
  18    9   10 1
  19    9   46 1
  20    9   47 1
  21   10   11 1
  22   10   13 1
  23   11   12 1
  24   11   48 1
  25   11   49 1
  26   12   50 1
  27   12   51 1
  28   13   14 ar
  29   13   18 ar
  30   14   15 ar
  31   14   52 1
  32   15   16 ar
  33   15   53 1
  34   16   17 ar
  35   16   24 1
  36   17   18 ar
  37   17   54 1
  38   18   19 1
  39   19   20 am
  40   19   55 1
  41   20   21 1
  42   20   22 2
  43   21   23 1
  44   21   26 2
  45   23   28 1
  46   23   56 1
  47   24   25 2
  48   24   30 am
  49   26   27 1
  50   26   57 1
  51   27   28 2
  52   27   58 1
  53   28   59 1
  54   29   60 1
  55   29   61 1
  56   29   62 1
  57   30   31 1
  58   30   63 1
  59   31   32 1
  60   31   64 1
  61   31   65 1
  62   32   33 1
  63   32   66 1
  64   32   67 1
  65   33   34 1
  66   33   68 1
  67   33   69 1
  68   34   35 am
  69   34   36 1
  70   35   39 2
  71   35   38 1
  72   36   37 1
  73   36   70 1
  74   36   71 1
  75   37   38 1
  76   37   72 1
  77   37   73 1
  78   38   74 1
  79   38   75 1

#	End of record

