#	Name: ASD01148001
#	Creating user name:	WinNT
#	Creation time:	15. 06. 2019 19:01

#	Modifying user name:	WinNT
#	Modification time:	15. 06. 2019 19:01

#	Program:	/corina/corina34_cracker 3.40 0067  02.08.2006

@<TRIPOS>MOLECULE
ASD01148001
  66   69    0    0    0
SMALL
NO_CHARGES


@<TRIPOS>ATOM
   1 C1            -0.1006     1.8086     0.0706 C.3     
   2 C2            -0.3691     0.3030     0.2034 C.3     
   3 C3             0.8957    -0.5253     0.3299 C.3     
   4 C4             1.8735    -0.2531    -0.8118 C.3     
   5 C5             2.0374     1.2076    -1.0708 C.3     
   6 C6             1.3757     2.1014     0.0002 C.3     
   7 C7             3.4515     1.8036    -1.1211 C.3     
   8 C8             3.1177     3.3239    -1.2190 C.3     
   9 C9             1.7335     3.5026    -0.5450 C.3     
  10 C10            0.5892    -2.0287     0.3786 C.3     
  11 C11            1.4318    -2.7527    -0.6688 C.3     
  12 C12            2.9197    -2.4823    -0.4629 C.3     
  13 C13            3.1907    -0.9736    -0.5277 C.3     
  14 C14           -0.8915    -2.2758     0.0940 C.3     
  15 C15           -1.1925    -3.7754     0.1151 C.3     
  16 C16           -0.3287    -4.5018    -0.9159 C.3     
  17 C17            1.1537    -4.2562    -0.6232 C.3     
  18 C18            0.9292    -2.5288     1.7859 C.3     
  19 C19           -0.6156    -6.0041    -0.8513 C.3     
  20 C20            2.0354     1.9983     1.3732 C.3     
  21 C21            1.8243     4.4825     0.5964 C.2     
  22 O22            2.6110     4.3847     1.6772 O.3     
  23 C23            1.1315     5.6387     0.7296 C.2     
  24 C24            1.5849     6.1689     1.9593 C.2     
  25 N25            2.4635     5.3267     2.4210 N.2     
  26 H26           -0.5945     2.1882    -0.8341 H       
  27 H27           -0.5391     2.3328     0.9309 H       
  28 H28           -1.0018     0.1338     1.0850 H       
  29 H29           -0.9363    -0.0291    -0.6760 H       
  30 H30            1.3810    -0.3161     1.2881 H       
  31 H31            1.4490    -0.7007    -1.7324 H       
  32 H32            1.5563     1.4380    -2.0499 H       
  33 H33            4.0324     1.5786    -0.2390 H       
  34 H34            3.9708     1.4775    -2.0240 H       
  35 H35            3.8713     3.9028    -0.6896 H       
  36 H36            3.0678     3.6234    -2.2639 H       
  37 H37            0.9887     3.8124    -1.2701 H       
  38 H38            1.1423    -2.3961    -1.6665 H       
  39 H39            3.2552    -2.8769     0.4925 H       
  40 H40            3.4852    -2.9748    -1.2615 H       
  41 H41            3.9024    -0.7658    -1.3258 H       
  42 H42            3.5965    -0.6358     0.4250 H       
  43 H43           -1.4972    -1.7780     0.8526 H       
  44 H44           -1.1445    -1.8765    -0.8902 H       
  45 H45           -1.0190    -4.1894     1.1044 H       
  46 H46           -2.2474    -3.9256    -0.1416 H       
  47 H47           -0.5665    -4.1322    -1.9140 H       
  48 H48            1.7523    -4.7499    -1.3959 H       
  49 H49            1.4191    -4.6726     0.3424 H       
  50 H50            0.3229    -1.9948     2.5175 H       
  51 H51            0.7215    -3.5968     1.8520 H       
  52 H52            1.9851    -2.3507     1.9895 H       
  53 H53           -1.6688    -6.1824    -1.0683 H       
  54 H54           -0.0003    -6.5234    -1.5861 H       
  55 H55           -0.3821    -6.3760     0.1462 H       
  56 H56            3.0405     2.4173     1.3258 H       
  57 H57            1.4448     2.5526     2.1027 H       
  58 H58            2.0919     0.9514     1.6715 H       
  59 H59            0.4019     6.0585     0.0530 H       
  60 H60            1.2674     7.0915     2.4224 H       
  61 C61            9.5596    13.9035     8.4006 C.3     
  62 O62            9.5789    12.4747     8.3927 O.3     
  63 H63           10.5822    14.2808     8.3928 H       
  64 H64            9.0324    14.2646     7.5175 H       
  65 H65            9.0494    14.2551     9.2974 H       
  66 H66           10.0186    12.0915     7.6214 H       
@<TRIPOS>BOND
   1    1    2 1
   2    1    6 1
   3    1   26 1
   4    1   27 1
   5    2    3 1
   6    2   28 1
   7    2   29 1
   8    3    4 1
   9    3   10 1
  10    3   30 1
  11    4    5 1
  12    4   13 1
  13    4   31 1
  14    5    6 1
  15    5    7 1
  16    5   32 1
  17    6   20 1
  18    6    9 1
  19    7    8 1
  20    7   33 1
  21    7   34 1
  22    8    9 1
  23    8   35 1
  24    8   36 1
  25    9   21 1
  26    9   37 1
  27   10   14 1
  28   10   18 1
  29   10   11 1
  30   11   12 1
  31   11   17 1
  32   11   38 1
  33   12   13 1
  34   12   39 1
  35   12   40 1
  36   13   41 1
  37   13   42 1
  38   14   15 1
  39   14   43 1
  40   14   44 1
  41   15   16 1
  42   15   45 1
  43   15   46 1
  44   16   17 1
  45   16   19 1
  46   16   47 1
  47   17   48 1
  48   17   49 1
  49   18   50 1
  50   18   51 1
  51   18   52 1
  52   19   53 1
  53   19   54 1
  54   19   55 1
  55   20   56 1
  56   20   57 1
  57   20   58 1
  58   21   22 1
  59   21   23 2
  60   22   25 1
  61   23   24 1
  62   23   59 1
  63   24   25 2
  64   24   60 1
  65   61   62 1
  66   61   63 1
  67   61   64 1
  68   61   65 1
  69   62   66 1

#	End of record

