#	Name: ASD03730094
#	Creating user name:	WinNT
#	Creation time:	15. 06. 2019 20:43

#	Modifying user name:	WinNT
#	Modification time:	15. 06. 2019 20:43

#	Program:	/corina/corina34_cracker 3.40 0067  02.08.2006

@<TRIPOS>MOLECULE
ASD03730094
  53   58    0    0    0
SMALL
NO_CHARGES


@<TRIPOS>ATOM
   1 C1            -0.0187     1.5021     0.0187 C.2     
   2 C2             0.0010    -0.0045    -0.0112 C.3     
   3 O3             1.0237     2.1220     0.0370 O.2     
   4 N4            -1.1946     2.1607     0.0195 N.am    
   5 O5             6.2136     2.8435     2.2213 O.3     
   6 C6             7.6304     2.7830     2.4705 C.3     
   7 O7             7.8345     1.4456     2.9633 O.3     
   8 C8             6.8310     0.6974     2.4172 C.ar    
   9 C9             5.8342     1.5575     1.9620 C.ar    
  10 C10            6.6857    -0.6701     2.2682 C.ar    
  11 C11            5.5466    -1.1967     1.6667 C.ar    
  12 C12            4.5539    -0.3280     1.2236 C.ar    
  13 C13            4.6987     1.0364     1.3651 C.ar    
  14 O14            5.2172    -2.4952     1.4102 O.3     
  15 C15            3.4556    -1.1860     0.6548 C.3     
  16 C16            3.7988    -2.5882     1.1759 C.3     
  17 N17            1.3885    -0.4747    -0.0126 N.am    
  18 C18            2.0946    -0.7390     1.1048 C.2     
  19 C19            3.4139    -1.1407    -0.8439 C.ar    
  20 C20            4.3303    -1.4291    -1.8303 C.ar    
  21 C21            3.9833    -1.2857    -3.1619 C.ar    
  22 C22            2.7143    -0.8515    -3.4996 C.ar    
  23 C23            1.7932    -0.5604    -2.5151 C.ar    
  24 C24            2.1336    -0.7023    -1.1721 C.ar    
  25 O25            1.7065    -0.6363     2.2493 O.2     
  26 C26           -1.2153     3.5573     0.1329 C.ar    
  27 C27           -2.3361     4.2001     0.6606 C.ar    
  28 C28           -2.3496     5.5831     0.7705 C.ar    
  29 C29           -1.2550     6.3198     0.3578 C.ar    
  30 C30           -0.1449     5.6826    -0.1649 C.ar    
  31 C31           -0.1205     4.3041    -0.2733 C.ar    
  32 S32           -3.7298     3.2582     1.1851 S.3     
  33 C33           -4.8828     4.5288     1.7740 C.3     
  34 H34           -0.5131    -0.3921     0.8683 H       
  35 H35           -0.5029    -0.3567    -0.9113 H       
  36 H36           -2.0265     1.6680    -0.0585 H       
  37 H37            8.1886     2.9404     1.5477 H       
  38 H38            7.9185     3.5166     3.2234 H       
  39 H39            7.4613    -1.3336     2.6211 H       
  40 H40            3.9242     1.6999     1.0097 H       
  41 H41            3.5796    -3.3453     0.4231 H       
  42 H42            3.2661    -2.7975     2.1036 H       
  43 H43            5.3207    -1.7678    -1.5643 H       
  44 H44            4.7015    -1.5127    -3.9359 H       
  45 H45            2.4435    -0.7394    -4.5391 H       
  46 H46            0.8044    -0.2213    -2.7867 H       
  47 H47           -3.2153     6.0841     1.1780 H       
  48 H48           -1.2672     7.3963     0.4437 H       
  49 H49            0.7074     6.2630    -0.4861 H       
  50 H50            0.7500     3.8097    -0.6782 H       
  51 H51           -4.4230     5.0865     2.5899 H       
  52 H52           -5.1209     5.2100     0.9571 H       
  53 H53           -5.7971     4.0533     2.1288 H       
@<TRIPOS>BOND
   1    1    2 1
   2    1    3 2
   3    1    4 am
   4    2   17 1
   5    2   34 1
   6    2   35 1
   7    4   26 1
   8    4   36 1
   9    5    6 1
  10    5    9 1
  11    6    7 1
  12    6   37 1
  13    6   38 1
  14    7    8 1
  15    8    9 ar
  16    8   10 ar
  17    9   13 ar
  18   10   11 ar
  19   10   39 1
  20   11   12 ar
  21   11   14 1
  22   12   13 ar
  23   12   15 1
  24   13   40 1
  25   14   16 1
  26   15   16 1
  27   15   18 1
  28   15   19 1
  29   16   41 1
  30   16   42 1
  31   17   18 am
  32   17   24 1
  33   18   25 2
  34   19   20 ar
  35   19   24 ar
  36   20   21 ar
  37   20   43 1
  38   21   22 ar
  39   21   44 1
  40   22   23 ar
  41   22   45 1
  42   23   24 ar
  43   23   46 1
  44   26   27 ar
  45   26   31 ar
  46   27   28 ar
  47   27   32 1
  48   28   29 ar
  49   28   47 1
  50   29   30 ar
  51   29   48 1
  52   30   31 ar
  53   30   49 1
  54   31   50 1
  55   32   33 1
  56   33   51 1
  57   33   52 1
  58   33   53 1

#	End of record

