#	Name: ASD03092719
#	Creating user name:	WinNT
#	Creation time:	15. 06. 2019 20:33

#	Modifying user name:	WinNT
#	Modification time:	15. 06. 2019 20:33

#	Program:	/corina/corina34_cracker 3.40 0067  02.08.2006

@<TRIPOS>MOLECULE
ASD03092719
  58   61    0    0    0
SMALL
NO_CHARGES


@<TRIPOS>ATOM
   1 C1             0.0246     1.1858     0.0030 C.2     
   2 O2            -0.6774     1.1949     0.9960 O.2     
   3 C3             2.5225     1.2867     0.1078 C.ar    
   4 C4             1.2859     1.9474    -0.0145 C.ar    
   5 C5             1.2744     3.3389    -0.1535 C.ar    
   6 C6             2.4959     4.0113    -0.1644 C.ar    
   7 C7             3.6776     3.2812    -0.0377 C.ar    
   8 N8             3.6564     1.9704     0.0917 N.ar    
   9 N9             2.5535    -0.0873     0.2517 N.pl3   
  10 C10            3.8369    -0.7936     0.2655 C.3     
  11 C11            3.5913    -2.2942     0.4359 C.3     
  12 C12            4.9115    -3.0207     0.4501 C.ar    
  13 C13            5.5735    -3.2282     1.6458 C.ar    
  14 C14            6.7845    -3.8946     1.6589 C.ar    
  15 C15            7.3333    -4.3540     0.4763 C.ar    
  16 C16            6.6710    -4.1474    -0.7193 C.ar    
  17 C17            5.4579    -3.4848    -0.7319 C.ar    
  18 C18            2.5383     5.4874    -0.3098 C.ar    
  19 C19            3.7626     6.1531    -0.3200 C.ar    
  20 C20            3.7988     7.5252    -0.4557 C.ar    
  21 C21            2.6174     8.2430    -0.5817 C.ar    
  22 C22            1.3963     7.5827    -0.5719 C.ar    
  23 C23            1.3541     6.2102    -0.4422 C.ar    
  24 O24            2.6561     9.5949    -0.7144 O.3     
  25 C25            1.4032    10.2706    -0.8394 C.3     
  26 C26            1.6467    11.7748    -0.9778 C.3     
  27 C27           -0.3841     0.4062    -1.1836 C.ar    
  28 C28           -1.5158    -0.4110    -1.1301 C.ar    
  29 C29           -1.8923    -1.1357    -2.2409 C.ar    
  30 C30           -1.1506    -1.0550    -3.4082 C.ar    
  31 C31           -0.0273    -0.2463    -3.4676 C.ar    
  32 C32            0.3562     0.4877    -2.3654 C.ar    
  33 Cl33          -1.6306    -1.9714    -4.8023 Cl      
  34 H34            0.3438     3.8785    -0.2501 H       
  35 H35            4.6255     3.7988    -0.0462 H       
  36 H36            1.7254    -0.5841     0.3435 H       
  37 H37            4.3598    -0.6154    -0.6741 H       
  38 H38            4.4437    -0.4284     1.0940 H       
  39 H39            3.0684    -2.4724     1.3755 H       
  40 H40            2.9845    -2.6594    -0.3926 H       
  41 H41            5.1446    -2.8692     2.5698 H       
  42 H42            7.3020    -4.0561     2.5930 H       
  43 H43            8.2798    -4.8741     0.4864 H       
  44 H44            7.1000    -4.5060    -1.6433 H       
  45 H45            4.9386    -3.3265    -1.6655 H       
  46 H46            4.6821     5.5953    -0.2213 H       
  47 H47            4.7473     8.0416    -0.4636 H       
  48 H48            0.4788     8.1438    -0.6697 H       
  49 H49            0.4040     5.6966    -0.4388 H       
  50 H50            0.8795     9.9046    -1.7225 H       
  51 H51            0.7978    10.0806     0.0468 H       
  52 H52            2.1704    12.1409    -0.0948 H       
  53 H53            2.2521    11.9649    -1.8641 H       
  54 H54            0.6910    12.2903    -1.0732 H       
  55 H55           -2.0943    -0.4753    -0.2204 H       
  56 H56           -2.7670    -1.7678    -2.2008 H       
  57 H57            0.5467    -0.1876    -4.3805 H       
  58 H58            1.2297     1.1209    -2.4141 H       
@<TRIPOS>BOND
   1    1    2 2
   2    1    4 1
   3    1   27 1
   4    3    4 ar
   5    3    8 ar
   6    3    9 1
   7    4    5 ar
   8    5    6 ar
   9    5   34 1
  10    6    7 ar
  11    6   18 1
  12    7    8 ar
  13    7   35 1
  14    9   10 1
  15    9   36 1
  16   10   11 1
  17   10   37 1
  18   10   38 1
  19   11   12 1
  20   11   39 1
  21   11   40 1
  22   12   13 ar
  23   12   17 ar
  24   13   14 ar
  25   13   41 1
  26   14   15 ar
  27   14   42 1
  28   15   16 ar
  29   15   43 1
  30   16   17 ar
  31   16   44 1
  32   17   45 1
  33   18   19 ar
  34   18   23 ar
  35   19   20 ar
  36   19   46 1
  37   20   21 ar
  38   20   47 1
  39   21   22 ar
  40   21   24 1
  41   22   23 ar
  42   22   48 1
  43   23   49 1
  44   24   25 1
  45   25   26 1
  46   25   50 1
  47   25   51 1
  48   26   52 1
  49   26   53 1
  50   26   54 1
  51   27   28 ar
  52   27   32 ar
  53   28   29 ar
  54   28   55 1
  55   29   30 ar
  56   29   56 1
  57   30   31 ar
  58   30   33 1
  59   31   32 ar
  60   31   57 1
  61   32   58 1

#	End of record

