#	Name: ASD00310250
#	Creating user name:	WinNT
#	Creation time:	15. 06. 2019 18:34

#	Modifying user name:	WinNT
#	Modification time:	15. 06. 2019 18:34

#	Program:	/corina/corina34_cracker 3.40 0067  02.08.2006

@<TRIPOS>MOLECULE
ASD00310250
  41   44    0    0    0
SMALL
NO_CHARGES


@<TRIPOS>ATOM
   1 N1            -0.0163     1.3501     0.0095 N.pl3   
   2 C2             0.0021    -0.0041     0.0020 C.2     
   3 C3             1.2920    -0.4484    -0.0127 C.2     
   4 C4             2.1473     0.7540    -0.0144 C.ar    
   5 C5             3.5224     0.9582    -0.0268 C.ar    
   6 C6             4.0236     2.2550    -0.0250 C.ar    
   7 C7             3.1450     3.3452    -0.0108 C.ar    
   8 C8             1.7840     3.1443     0.0015 C.ar    
   9 C9             1.2689     1.8504    -0.0001 C.ar    
  10 C10            1.7401    -1.8455    -0.0240 C.2     
  11 O11            2.9285    -2.1028    -0.0364 O.2     
  12 O12            0.8341    -2.8442    -0.0208 O.3     
  13 C13            5.4872     2.4833    -0.0377 C.ar    
  14 C14            6.1180     3.0948     1.0617 C.ar    
  15 C15            7.4976     3.3029     1.0356 C.ar    
  16 C16            8.2330     2.9098    -0.0632 C.ar    
  17 C17            7.6109     2.3086    -1.1448 C.ar    
  18 C18            6.2480     2.0892    -1.1347 C.ar    
  19 C19            9.7227     3.1365    -0.0873 C.3     
  20 C20           10.4916     2.0911    -0.9123 C.3     
  21 C21           11.3656     3.2500    -1.4202 C.3     
  22 C22           10.1712     4.1741    -1.1299 C.3     
  23 O23           10.2717     3.3556     1.2138 O.3     
  24 C24            5.3491     3.5011     2.1995 C.1     
  25 N25            4.7392     3.8234     3.1020 N.1     
  26 Cl26           3.7776     4.9618    -0.0081 Cl      
  27 H27           -0.8207     1.8922     0.0164 H       
  28 H28           -0.8729    -0.6372     0.0075 H       
  29 H29            4.1969     0.1149    -0.0374 H       
  30 H30            1.1141     3.9913     0.0125 H       
  31 H31            1.1772    -3.7483    -0.0286 H       
  32 H32            7.9892     3.7718     1.8752 H       
  33 H33            8.1967     2.0053    -1.9999 H       
  34 H34            5.7712     1.6157    -1.9802 H       
  35 H35           11.0353     1.3684    -0.3037 H       
  36 H36            9.8912     1.6226    -1.6921 H       
  37 H37           12.2344     3.4492    -0.7928 H       
  38 H38           11.6144     3.1776    -2.4790 H       
  39 H39            9.4832     4.2751    -1.9693 H       
  40 H40           10.4561     5.1330    -0.6971 H       
  41 H41            9.8063     4.0290     1.7287 H       
@<TRIPOS>BOND
   1    1    2 1
   2    1    9 1
   3    1   27 1
   4    2    3 2
   5    2   28 1
   6    3    4 1
   7    3   10 1
   8    4    5 ar
   9    4    9 ar
  10    5    6 ar
  11    5   29 1
  12    6    7 ar
  13    6   13 1
  14    7    8 ar
  15    7   26 1
  16    8    9 ar
  17    8   30 1
  18   10   11 2
  19   10   12 1
  20   12   31 1
  21   13   14 ar
  22   13   18 ar
  23   14   15 ar
  24   14   24 1
  25   15   16 ar
  26   15   32 1
  27   16   17 ar
  28   16   19 1
  29   17   18 ar
  30   17   33 1
  31   18   34 1
  32   19   20 1
  33   19   22 1
  34   19   23 1
  35   20   21 1
  36   20   35 1
  37   20   36 1
  38   21   22 1
  39   21   37 1
  40   21   38 1
  41   22   39 1
  42   22   40 1
  43   23   41 1
  44   24   25 3

#	End of record

