#	Name: ASD07931336
#	Creating user name:	WinNT
#	Creation time:	15. 06. 2019 21:13

#	Modifying user name:	WinNT
#	Modification time:	15. 06. 2019 21:13

#	Program:	/corina/corina34_cracker 3.40 0067  02.08.2006

@<TRIPOS>MOLECULE
ASD07931336
  56   62    0    0    0
SMALL
NO_CHARGES


@<TRIPOS>ATOM
   1 C1            -0.0169     1.3951     0.0097 C.ar    
   2 N2             0.0021    -0.0041     0.0020 N.am    
   3 N3            -1.1337    -0.8178     0.0080 N.2     
   4 C4            -0.8065    -2.0781    -0.0025 C.2     
   5 C5             0.6725    -2.1495    -0.0170 C.2     
   6 C6             1.1207    -0.7604    -0.0181 C.2     
   7 O7             2.2742    -0.3625    -0.0283 O.2     
   8 C8            -1.5431    -3.3564    -0.0026 C.ar    
   9 C9            -0.8033    -4.5506    -0.0164 C.ar    
  10 N10            0.5805    -4.5196    -0.0290 N.pl3   
  11 C11            1.2862    -3.3773    -0.0305 C.2     
  12 C12           -2.9335    -3.3940     0.0109 C.ar    
  13 C13           -3.5846    -4.6106     0.0108 C.ar    
  14 C14           -2.8579    -5.7901    -0.0024 C.ar    
  15 C15           -1.4787    -5.7660    -0.0168 C.ar    
  16 C16            1.3082    -5.7910    -0.0427 C.3     
  17 C17            1.5446    -6.2192    -1.4681 C.ar    
  18 C18            2.6928    -5.8199    -2.1271 C.ar    
  19 C19            2.9121    -6.2104    -3.4337 C.ar    
  20 C20            1.9784    -7.0050    -4.0852 C.ar    
  21 C21            0.8267    -7.4046    -3.4208 C.ar    
  22 C22            0.6155    -7.0153    -2.1126 C.ar    
  23 N23            2.1979    -7.4025    -5.4115 N.pl3   
  24 C24            1.3739    -8.1717    -6.1585 C.2     
  25 C25            1.9444    -8.3242    -7.3760 C.2     
  26 C26            3.1569    -7.6259    -7.3741 C.2     
  27 N27            3.3068    -7.0683    -6.1996 N.2     
  28 C28            1.1891     2.1054     0.0020 C.ar    
  29 C29            1.2009     3.4645     0.0097 C.ar    
  30 C30           -0.0107     4.1780     0.0251 C.ar    
  31 C31           -1.2356     3.4647     0.0325 C.ar    
  32 C32           -1.2229     2.0619     0.0191 C.ar    
  33 N33           -0.0207     5.5150     0.0334 N.ar    
  34 C34           -1.1450     6.1886     0.0481 C.ar    
  35 C35           -2.3831     5.5494     0.0565 C.ar    
  36 C36           -2.4455     4.1852     0.0479 C.ar    
  37 H37            2.3651    -3.4258    -0.0403 H       
  38 H38           -3.5009    -2.4751     0.0219 H       
  39 H39           -4.6640    -4.6434     0.0213 H       
  40 H40           -3.3762    -6.7376    -0.0017 H       
  41 H41           -0.9229    -6.6920    -0.0266 H       
  42 H42            2.2658    -5.6670     0.4630 H       
  43 H43            0.7210    -6.5513     0.4724 H       
  44 H44            3.4187    -5.2019    -1.6197 H       
  45 H45            3.8087    -5.8977    -3.9481 H       
  46 H46            0.0985    -8.0224    -3.9252 H       
  47 H47           -0.2802    -7.3258    -1.5952 H       
  48 H48            0.4302    -8.5896    -5.8404 H       
  49 H49            1.5360    -8.8859    -8.2031 H       
  50 H50            3.8480    -7.5553    -8.2011 H       
  51 H51            2.1243     1.5654    -0.0098 H       
  52 H52            2.1408     3.9964     0.0043 H       
  53 H53           -2.1506     1.5090     0.0242 H       
  54 H54           -1.1109     7.2681     0.0544 H       
  55 H55           -3.2923     6.1321     0.0697 H       
  56 H56           -3.3963     3.6731     0.0538 H       
@<TRIPOS>BOND
   1    1    2 1
   2    1   28 ar
   3    1   32 ar
   4    2    3 1
   5    2    6 am
   6    3    4 2
   7    4    5 1
   8    4    8 1
   9    5    6 1
  10    5   11 2
  11    6    7 2
  12    8    9 ar
  13    8   12 ar
  14    9   10 1
  15    9   15 ar
  16   10   11 1
  17   10   16 1
  18   11   37 1
  19   12   13 ar
  20   12   38 1
  21   13   14 ar
  22   13   39 1
  23   14   15 ar
  24   14   40 1
  25   15   41 1
  26   16   17 1
  27   16   42 1
  28   16   43 1
  29   17   18 ar
  30   17   22 ar
  31   18   19 ar
  32   18   44 1
  33   19   20 ar
  34   19   45 1
  35   20   21 ar
  36   20   23 1
  37   21   22 ar
  38   21   46 1
  39   22   47 1
  40   23   24 1
  41   23   27 1
  42   24   25 2
  43   24   48 1
  44   25   26 1
  45   25   49 1
  46   26   27 2
  47   26   50 1
  48   28   29 ar
  49   28   51 1
  50   29   30 ar
  51   29   52 1
  52   30   31 ar
  53   30   33 ar
  54   31   32 ar
  55   31   36 ar
  56   32   53 1
  57   33   34 ar
  58   34   35 ar
  59   34   54 1
  60   35   36 ar
  61   35   55 1
  62   36   56 1

#	End of record

