#	Name: ASD03331385
#	Creating user name:	WinNT
#	Creation time:	15. 06. 2019 20:39

#	Modifying user name:	WinNT
#	Modification time:	15. 06. 2019 20:39

#	Program:	/corina/corina34_cracker 3.40 0067  02.08.2006

@<TRIPOS>MOLECULE
ASD03331385
  70   74    0    0    0
SMALL
NO_CHARGES


@<TRIPOS>ATOM
   1 N1             0.0416     1.3411    -0.3504 N.2     
   2 N2             0.0722    -0.0483    -0.1512 N.am    
   3 C3             1.3693    -0.4317    -0.1054 C.2     
   4 C4             2.1378     0.6734    -0.2676 C.2     
   5 C5             1.2839     1.7758    -0.4207 C.2     
   6 C6             3.6455     0.6359    -0.2684 C.3     
   7 C7             1.9488    -1.8118     0.0848 C.3     
   8 C8             3.4254    -1.7603    -0.3342 C.3     
   9 O9             4.0571    -0.6282     0.2697 O.3     
  10 C10           -0.9993    -0.8563    -0.0271 C.2     
  11 O11           -0.8441    -2.0492     0.1435 O.2     
  12 N12           -2.2430    -0.3411    -0.0922 N.am    
  13 C13           -4.5924    -0.5920    -0.6457 C.2     
  14 C14           -3.4077    -1.2195     0.0427 C.3     
  15 C15           -3.7266    -1.4195     1.5256 C.3     
  16 C16           -5.0223    -2.2211     1.6650 C.3     
  17 N17           -5.5550    -1.3724    -1.1757 N.am    
  18 C18           -6.7728    -0.7826    -1.7521 C.3     
  19 C19           -6.9755    -1.3601    -3.1569 C.3     
  20 N20           -6.9699    -2.8274    -3.0852 N.3     
  21 C21           -5.6716    -3.3331    -2.6197 C.3     
  22 C22           -5.4128    -2.8362    -1.1984 C.3     
  23 C23           -7.3108    -3.3849    -4.3053 C.ar    
  24 N24           -7.3561    -4.7037    -4.4237 N.ar    
  25 C25           -7.6784    -5.2685    -5.5755 C.ar    
  26 C26           -7.9704    -4.4632    -6.6652 C.ar    
  27 C27           -7.9135    -3.0875    -6.5065 C.ar    
  28 N28           -7.5895    -2.5870    -5.3257 N.ar    
  29 O29           -4.6796     0.6152    -0.7228 O.2     
  30 C30           -2.5811    -2.1812     2.1954 C.3     
  31 C31           -3.8953    -0.0563     2.1994 C.3     
  32 C32            1.7052     3.1837    -0.6258 C.ar    
  33 C33            0.9519     4.0268    -1.4406 C.ar    
  34 C34            1.3481     5.3368    -1.6286 C.ar    
  35 C35            2.4945     5.8120    -1.0074 C.ar    
  36 C36            3.2448     4.9761    -0.1977 C.ar    
  37 C37            2.8518     3.6679     0.0004 C.ar    
  38 F38            2.8797     7.0935    -1.1935 F       
  39 F39            0.6193     6.1557    -2.4181 F       
  40 H40            4.0162     0.7406    -1.2881 H       
  41 H41            4.0346     1.4442     0.3507 H       
  42 H42            1.8719    -2.1036     1.1322 H       
  43 H43            1.4124    -2.5269    -0.5390 H       
  44 H44            3.9269    -2.6719    -0.0091 H       
  45 H45            3.4921    -1.6774    -1.4190 H       
  46 H46           -2.3669     0.6112    -0.2284 H       
  47 H47           -3.1902    -2.1842    -0.4156 H       
  48 H48           -4.8986    -3.1964     1.1942 H       
  49 H49           -5.2551    -2.3546     2.7215 H       
  50 H50           -5.8363    -1.6835     1.1787 H       
  51 H51           -7.6308    -1.0303    -1.1271 H       
  52 H52           -6.6616     0.2999    -1.8137 H       
  53 H53           -7.9307    -1.0191    -3.5561 H       
  54 H54           -6.1682    -1.0247    -3.8080 H       
  55 H55           -5.6813    -4.4231    -2.6293 H       
  56 H56           -4.8825    -2.9702    -3.2783 H       
  57 H57           -4.4027    -3.1107    -0.8941 H       
  58 H58           -6.1375    -3.2851    -0.5191 H       
  59 H59           -7.7132    -6.3442    -5.6660 H       
  60 H60           -8.2361    -4.8983    -7.6173 H       
  61 H61           -8.1349    -2.4320    -7.3358 H       
  62 H62           -1.6580    -1.6101     2.0960 H       
  63 H63           -2.8083    -2.3238     3.2519 H       
  64 H64           -2.4609    -3.1524     1.7153 H       
  65 H65           -4.7113     0.4864     1.7223 H       
  66 H66           -4.1225    -0.1988     3.2559 H       
  67 H67           -2.9722     0.5148     2.1001 H       
  68 H68            0.0602     3.6565    -1.9245 H       
  69 H69            4.1365     5.3499     0.2836 H       
  70 H70            3.4355     3.0186     0.6360 H       
@<TRIPOS>BOND
   1    1    2 1
   2    1    5 2
   3    2    3 1
   4    2   10 am
   5    3    4 2
   6    3    7 1
   7    4    5 1
   8    4    6 1
   9    5   32 1
  10    6    9 1
  11    6   40 1
  12    6   41 1
  13    7    8 1
  14    7   42 1
  15    7   43 1
  16    8    9 1
  17    8   44 1
  18    8   45 1
  19   10   11 2
  20   10   12 am
  21   12   14 1
  22   12   46 1
  23   13   17 am
  24   13   29 2
  25   13   14 1
  26   14   15 1
  27   14   47 1
  28   15   16 1
  29   15   30 1
  30   15   31 1
  31   16   48 1
  32   16   49 1
  33   16   50 1
  34   17   18 1
  35   17   22 1
  36   18   19 1
  37   18   51 1
  38   18   52 1
  39   19   20 1
  40   19   53 1
  41   19   54 1
  42   20   21 1
  43   20   23 1
  44   21   22 1
  45   21   55 1
  46   21   56 1
  47   22   57 1
  48   22   58 1
  49   23   24 ar
  50   23   28 ar
  51   24   25 ar
  52   25   26 ar
  53   25   59 1
  54   26   27 ar
  55   26   60 1
  56   27   28 ar
  57   27   61 1
  58   30   62 1
  59   30   63 1
  60   30   64 1
  61   31   65 1
  62   31   66 1
  63   31   67 1
  64   32   33 ar
  65   32   37 ar
  66   33   34 ar
  67   33   68 1
  68   34   35 ar
  69   34   39 1
  70   35   36 ar
  71   35   38 1
  72   36   37 ar
  73   36   69 1
  74   37   70 1

#	End of record

