#	Name: ASD03081134
#	Creating user name:	WinNT
#	Creation time:	15. 06. 2019 20:27

#	Modifying user name:	WinNT
#	Modification time:	15. 06. 2019 20:27

#	Program:	/corina/corina34_cracker 3.40 0067  02.08.2006

@<TRIPOS>MOLECULE
ASD03081134
  25   27    0    0    0
SMALL
NO_CHARGES


@<TRIPOS>ATOM
   1 O1            -0.0144     1.2085     0.0087 O.3     
   2 N2             0.0021    -0.0041     0.0020 N.2     
   3 C3             1.2348    -0.4424    -0.0121 C.2     
   4 N4             2.0460     0.6358    -0.0141 N.2     
   5 C5             1.2413     1.6828    -0.0008 C.2     
   6 C6             1.6453     3.1029     0.0023 C.ar    
   7 C7             0.6750     4.1095     0.0167 C.ar    
   8 C8             1.0624     5.4381     0.0199 C.ar    
   9 C9             2.4068     5.7704     0.0089 C.ar    
  10 C10            3.3714     4.7794    -0.0053 C.ar    
  11 C11            3.0003     3.4480    -0.0034 C.ar    
  12 F12            3.9448     2.4820    -0.0121 F       
  13 F13            0.1271     6.4129     0.0334 F       
  14 F14           -0.6367     3.7861     0.0270 F       
  15 C15            2.4331    -4.4281    -0.0446 C.ar    
  16 N16            1.1448    -4.1485    -0.0308 N.ar    
  17 C17            0.7212    -2.8963    -0.0200 C.ar    
  18 C18            1.6622    -1.8640    -0.0234 C.ar    
  19 C19            3.0164    -2.2061    -0.0382 C.ar    
  20 N20            3.3535    -3.4843    -0.0483 N.ar    
  21 H21            2.7036     6.8088     0.0111 H       
  22 H22            4.4177     5.0466    -0.0138 H       
  23 H23            2.7440    -5.4624    -0.0486 H       
  24 H24           -0.3358    -2.6749    -0.0090 H       
  25 H25            3.7760    -1.4385    -0.0416 H       
@<TRIPOS>BOND
   1    1    2 1
   2    1    5 1
   3    2    3 2
   4    3    4 1
   5    3   18 1
   6    4    5 2
   7    5    6 1
   8    6    7 ar
   9    6   11 ar
  10    7    8 ar
  11    7   14 1
  12    8    9 ar
  13    8   13 1
  14    9   10 ar
  15    9   21 1
  16   10   11 ar
  17   10   22 1
  18   11   12 1
  19   15   16 ar
  20   15   20 ar
  21   15   23 1
  22   16   17 ar
  23   17   18 ar
  24   17   24 1
  25   18   19 ar
  26   19   20 ar
  27   19   25 1

#	End of record

