#	Name: ASD01030020
#	Creating user name:	WinNT
#	Creation time:	15. 06. 2019 18:58

#	Modifying user name:	WinNT
#	Modification time:	15. 06. 2019 18:58

#	Program:	/corina/corina34_cracker 3.40 0067  02.08.2006

@<TRIPOS>MOLECULE
ASD01030020
  36   36    0    0    0
SMALL
NO_CHARGES


@<TRIPOS>ATOM
   1 C1            -0.0184     1.5028     0.0103 C.3     
   2 C2             0.0021    -0.0041     0.0020 C.2     
   3 C3            -0.6384    -0.6808     0.9450 C.2     
   4 C4            -0.6183    -2.1588     0.9369 C.ar    
   5 C5            -1.2914    -2.8741     1.9280 C.ar    
   6 C6            -1.2688    -4.2536     1.9147 C.ar    
   7 C7            -0.5803    -4.9276     0.9219 C.ar    
   8 C8             0.0894    -4.2243    -0.0633 C.ar    
   9 C9             0.0690    -2.8447    -0.0652 C.ar    
  10 P10            1.6919     2.1338    -0.0026 P.3     
  11 O11            1.6708     3.7389    -0.1261 O.3     
  12 O12            2.4305     1.7103     1.3638 O.3     
  13 O13            2.4208     1.5598    -1.1558 O.2     
  14 C14            2.8563     4.5243    -0.2666 C.3     
  15 C15            2.4797     6.0045    -0.3565 C.3     
  16 C16            3.8143     1.9664     1.6122 C.3     
  17 C17            4.1901     1.4375     2.9978 C.3     
  18 H18           -0.5455     1.8639    -0.8728 H       
  19 H19           -0.5286     1.8543     0.9071 H       
  20 H20            0.5385    -0.5326    -0.7721 H       
  21 H21           -1.1748    -0.1523     1.7192 H       
  22 H22           -1.8286    -2.3491     2.7039 H       
  23 H23           -1.7893    -4.8084     2.6813 H       
  24 H24           -0.5653    -6.0075     0.9162 H       
  25 H25            0.6254    -4.7563    -0.8354 H       
  26 H26            0.5882    -2.2968    -0.8377 H       
  27 H27            3.5018     4.3655     0.5973 H       
  28 H28            3.3833     4.2277    -1.1734 H       
  29 H29            3.3840     6.6036    -0.4636 H       
  30 H30            1.8342     6.1633    -1.2204 H       
  31 H31            1.9527     6.3011     0.5503 H       
  32 H32            4.4181     1.4649     0.8559 H       
  33 H33            3.9983     3.0399     1.5709 H       
  34 H34            5.2456     1.6328     3.1873 H       
  35 H35            3.5863     1.9390     3.7542 H       
  36 H36            4.0061     0.3639     3.0392 H       
@<TRIPOS>BOND
   1    1    2 1
   2    1   10 1
   3    1   18 1
   4    1   19 1
   5    2    3 2
   6    2   20 1
   7    3    4 1
   8    3   21 1
   9    4    5 ar
  10    4    9 ar
  11    5    6 ar
  12    5   22 1
  13    6    7 ar
  14    6   23 1
  15    7    8 ar
  16    7   24 1
  17    8    9 ar
  18    8   25 1
  19    9   26 1
  20   10   11 1
  21   10   12 1
  22   10   13 2
  23   11   14 1
  24   12   16 1
  25   14   15 1
  26   14   27 1
  27   14   28 1
  28   15   29 1
  29   15   30 1
  30   15   31 1
  31   16   17 1
  32   16   32 1
  33   16   33 1
  34   17   34 1
  35   17   35 1
  36   17   36 1

#	End of record

