#	Name: ASD01810448
#	Creating user name:	WinNT
#	Creation time:	15. 06. 2019 19:24

#	Modifying user name:	WinNT
#	Modification time:	15. 06. 2019 19:24

#	Program:	/corina/corina34_cracker 3.40 0067  02.08.2006

@<TRIPOS>MOLECULE
ASD01810448
  59   62    0    0    0
SMALL
NO_CHARGES


@<TRIPOS>ATOM
   1 C1            -0.4409     1.7871     1.8052 C.2     
   2 C2            -0.6012     0.5484     2.5934 C.ar    
   3 C3             0.5048    -0.2662     2.8723 C.ar    
   4 C4             0.3028    -1.4142     3.6139 C.ar    
   5 C5            -0.9765    -1.7212     4.0547 C.ar    
   6 N6            -2.0003    -0.9337     3.7755 N.ar    
   7 C7            -1.8550     0.1733     3.0771 C.ar    
   8 O8             0.6570     2.1074     1.3927 O.2     
   9 N9            -1.5126     2.5596     1.5385 N.am    
  10 F10           -1.1787    -2.8428     4.7802 F       
  11 C11           -1.3470     3.7822     0.8793 C.ar    
  12 C12           -2.3349     4.2476     0.0192 C.ar    
  13 C13           -2.1757     5.4547    -0.6348 C.ar    
  14 C14           -1.0347     6.2061    -0.4385 C.ar    
  15 C15           -0.0370     5.7479     0.4234 C.ar    
  16 C16           -0.2002     4.5323     1.0880 C.ar    
  17 C17           -3.5835     3.4330    -0.2011 C.3     
  18 C18            1.1865     6.5507     0.6352 C.2     
  19 O19            2.2524     5.9967     0.8203 O.2     
  20 N20            1.1197     7.8968     0.6230 N.am    
  21 C21            2.3482     8.6525     0.7239 C.3     
  22 C22            2.6751     8.9158     2.2145 C.3     
  23 C23            1.7355     9.8973     2.7780 C.3     
  24 C24            0.2797     9.4411     2.7856 C.3     
  25 C25           -0.3477     9.7481     1.4481 C.3     
  26 C26           -0.2039     8.5385     0.5010 C.3     
  27 C27            2.1502    10.1978     4.1953 C.ar    
  28 C28            2.4843    11.4912     4.5555 C.ar    
  29 C29            2.8648    11.7733     5.8511 C.ar    
  30 C30            2.9119    10.7500     6.8000 C.ar    
  31 C31            2.5729     9.4471     6.4297 C.ar    
  32 C32            2.1896     9.1800     5.1317 C.ar    
  33 C33            3.3064    11.0354     8.1467 C.1     
  34 N34            3.6193    11.2619     9.2150 N.1     
  35 H35            1.4899    -0.0033     2.5163 H       
  36 H36            1.1317    -2.0658     3.8477 H       
  37 H37           -2.7150     0.7940     2.8729 H       
  38 H38           -2.3989     2.2678     1.8037 H       
  39 H39           -2.9465     5.8109    -1.3021 H       
  40 H40           -0.9138     7.1485    -0.9520 H       
  41 H41            0.5664     4.1748     1.7594 H       
  42 H42           -4.3389     3.7211     0.5299 H       
  43 H43           -3.9630     3.6146    -1.2066 H       
  44 H44           -3.3516     2.3742    -0.0860 H       
  45 H45            3.1609     8.0866     0.2685 H       
  46 H46            2.2329     9.6036     0.2041 H       
  47 H47            2.5981     7.9819     2.7712 H       
  48 H48            3.6917     9.3001     2.2985 H       
  49 H49            1.8069    10.8173     2.1978 H       
  50 H50            0.2359     8.3677     2.9700 H       
  51 H51           -0.2624     9.9678     3.5710 H       
  52 H52           -1.4048     9.9740     1.5881 H       
  53 H53            0.1490    10.6115     1.0056 H       
  54 H54           -0.3423     8.8716    -0.5276 H       
  55 H55           -0.9754     7.8069     0.7413 H       
  56 H56            2.4475    12.2817     3.8206 H       
  57 H57            3.1260    12.7832     6.1308 H       
  58 H58            2.6072     8.6509     7.1586 H       
  59 H59            1.9233     8.1734     4.8449 H       
@<TRIPOS>BOND
   1    1    2 1
   2    1    8 2
   3    1    9 am
   4    2    3 ar
   5    2    7 ar
   6    3    4 ar
   7    3   35 1
   8    4    5 ar
   9    4   36 1
  10    5    6 ar
  11    5   10 1
  12    6    7 ar
  13    7   37 1
  14    9   11 1
  15    9   38 1
  16   11   12 ar
  17   11   16 ar
  18   12   13 ar
  19   12   17 1
  20   13   14 ar
  21   13   39 1
  22   14   15 ar
  23   14   40 1
  24   15   16 ar
  25   15   18 1
  26   16   41 1
  27   17   42 1
  28   17   43 1
  29   17   44 1
  30   18   19 2
  31   18   20 am
  32   20   21 1
  33   20   26 1
  34   21   22 1
  35   21   45 1
  36   21   46 1
  37   22   23 1
  38   22   47 1
  39   22   48 1
  40   23   24 1
  41   23   27 1
  42   23   49 1
  43   24   25 1
  44   24   50 1
  45   24   51 1
  46   25   26 1
  47   25   52 1
  48   25   53 1
  49   26   54 1
  50   26   55 1
  51   27   28 ar
  52   27   32 ar
  53   28   29 ar
  54   28   56 1
  55   29   30 ar
  56   29   57 1
  57   30   31 ar
  58   30   33 1
  59   31   32 ar
  60   31   58 1
  61   32   59 1
  62   33   34 3

#	End of record

