#	Name: ASD03331798
#	Creating user name:	WinNT
#	Creation time:	15. 06. 2019 20:39

#	Modifying user name:	WinNT
#	Modification time:	15. 06. 2019 20:39

#	Program:	/corina/corina34_cracker 3.40 0067  02.08.2006

@<TRIPOS>MOLECULE
ASD03331798
  45   47    0    0    0
SMALL
NO_CHARGES


@<TRIPOS>ATOM
   1 C1             1.2445    -0.4905    -1.4346 C.ar    
   2 C2             0.7606    -0.0646    -2.6591 C.ar    
   3 C3             1.2786     1.0730    -3.2528 C.ar    
   4 C4             2.2803     1.7863    -2.6242 C.ar    
   5 C5             2.7674     1.3614    -1.3953 C.ar    
   6 C6             2.2459     0.2195    -0.8017 C.ar    
   7 N7             3.7831     2.0824    -0.7563 N.am    
   8 C8             3.8159     3.4265    -0.8487 C.2     
   9 N9             4.7384     4.1271    -0.1598 N.am    
  10 O10            3.0132     4.0072    -1.5537 O.2     
  11 C11            4.8355     5.5128    -0.3300 C.ar    
  12 C12            3.7811     7.6380    -0.7082 C.ar    
  13 C13            3.6892     6.2692    -0.5391 C.ar    
  14 C14            6.0755     6.1320    -0.2843 C.ar    
  15 C15            6.1672     7.5109    -0.4542 C.ar    
  16 C16            5.0121     8.2613    -0.6694 C.ar    
  17 C17            7.4905     8.1799    -0.4061 C.ar    
  18 C18            7.5725     9.5593    -0.5771 C.ar    
  19 C19            8.8134    10.1736    -0.5302 C.ar    
  20 C20            9.9340     9.3882    -0.3136 C.ar    
  21 C21            9.7822     8.0162    -0.1507 C.ar    
  22 N22            8.5842     7.4587    -0.1950 N.ar    
  23 Cl23          -0.4982    -0.9593    -3.4520 Cl      
  24 N24           10.9082     7.2177     0.0682 N.am    
  25 C25           11.2822     6.9105     1.3260 C.2     
  26 C26           11.6199     6.7550    -0.9786 C.2     
  27 O27           12.5420     5.9864    -0.7937 O.2     
  28 O28           11.3088     7.1445    -2.2287 O.3     
  29 O29           10.6981     7.4023     2.2706 O.2     
  30 O30           12.3030     6.0587     1.5355 O.3     
  31 H31            0.8357    -1.3763    -0.9714 H       
  32 H32            0.8994     1.4031    -4.2086 H       
  33 H33            2.6848     2.6737    -3.0883 H       
  34 H34            2.6231    -0.1131     0.1541 H       
  35 H35            4.4632     1.6145    -0.2469 H       
  36 H36            5.3350     3.6709     0.4541 H       
  37 H37            2.8870     8.2216    -0.8709 H       
  38 H38            2.7236     5.7864    -0.5701 H       
  39 H39            6.9675     5.5464    -0.1170 H       
  40 H40            5.0801     9.3309    -0.8021 H       
  41 H41            6.6796    10.1433    -0.7446 H       
  42 H42            8.9053    11.2418    -0.6601 H       
  43 H43           10.9153     9.8373    -0.2721 H       
  44 H44           10.6175     7.8143    -2.3206 H       
  45 H45           12.5348     5.8688     2.4549 H       
@<TRIPOS>BOND
   1    1    2 ar
   2    1    6 ar
   3    1   31 1
   4    2    3 ar
   5    2   23 1
   6    3    4 ar
   7    3   32 1
   8    4    5 ar
   9    4   33 1
  10    5    6 ar
  11    5    7 1
  12    6   34 1
  13    7    8 am
  14    7   35 1
  15    8    9 am
  16    8   10 2
  17    9   11 1
  18    9   36 1
  19   11   14 ar
  20   11   13 ar
  21   12   13 ar
  22   12   16 ar
  23   12   37 1
  24   13   38 1
  25   14   15 ar
  26   14   39 1
  27   15   16 ar
  28   15   17 1
  29   16   40 1
  30   17   18 ar
  31   17   22 ar
  32   18   19 ar
  33   18   41 1
  34   19   20 ar
  35   19   42 1
  36   20   21 ar
  37   20   43 1
  38   21   22 ar
  39   21   24 1
  40   24   25 am
  41   24   26 am
  42   25   29 2
  43   25   30 1
  44   26   27 2
  45   26   28 1
  46   28   44 1
  47   30   45 1

#	End of record

