#	Name: ASD04590097
#	Creating user name:	WinNT
#	Creation time:	15. 06. 2019 20:50

#	Modifying user name:	WinNT
#	Modification time:	15. 06. 2019 20:50

#	Program:	/corina/corina34_cracker 3.40 0067  02.08.2006

@<TRIPOS>MOLECULE
ASD04590097
  38   40    0    0    0
SMALL
NO_CHARGES


@<TRIPOS>ATOM
   1 C1            -0.0152     1.4142     0.0331 C.2     
   2 C2             0.0033    -0.0047     0.0174 C.2     
   3 C3             1.2907     1.7926     0.0285 C.2     
   4 N4             2.0345     0.6567     0.0110 N.pl3   
   5 N5             1.2693    -0.3749     0.0048 N.2     
   6 N6            -1.1422     2.2495     0.0447 N.am    
   7 C7            -0.9885     3.5884     0.0592 C.2     
   8 C8            -1.1711    -0.8968     0.0162 C.2     
   9 N9            -1.0017    -2.2338     0.0003 N.am    
  10 C10           -2.1114    -3.0820     0.1128 C.ar    
  11 C11           -3.1975    -2.7212     0.9091 C.ar    
  12 C12           -4.2712    -3.5884     0.9906 C.ar    
  13 C13           -4.2326    -4.7839     0.2803 C.ar    
  14 N14           -3.1846    -5.0939    -0.4661 N.ar    
  15 C15           -2.1452    -4.2876    -0.5709 C.ar    
  16 O16            0.1270     4.0723     0.0621 O.2     
  17 C17           -2.1748     4.4677     0.0714 C.ar    
  18 C18           -2.7415     4.8992    -1.1310 C.ar    
  19 C19           -2.7399     4.8678     1.2853 C.ar    
  20 C20           -3.8495     5.6898     1.2885 C.ar    
  21 C21           -4.4019     6.1167     0.0943 C.ar    
  22 C22           -3.8511     5.7210    -1.1114 C.ar    
  23 O23           -2.2924    -0.4261     0.0296 O.2     
  24 N24           -5.3084    -5.6644     0.3558 N.pl3   
  25 Cl25          -2.0491     4.3324     2.7852 Cl      
  26 Cl26          -2.0521     4.4039    -2.6453 Cl      
  27 H27            1.6657     2.8054     0.0371 H       
  28 H28            3.0041     0.6284     0.0042 H       
  29 H29           -2.0320     1.8635     0.0423 H       
  30 H30           -0.1116    -2.6089    -0.0891 H       
  31 H31           -3.1999    -1.7864     1.4499 H       
  32 H32           -5.1290    -3.3409     1.5983 H       
  33 H33           -1.3077    -4.5739    -1.1898 H       
  34 H34           -4.2874     5.9999     2.2258 H       
  35 H35           -5.2702     6.7589     0.1032 H       
  36 H36           -4.2880     6.0584    -2.0397 H       
  37 H37           -6.0791    -5.4427     0.9015 H       
  38 H38           -5.2872    -6.4995    -0.1372 H       
@<TRIPOS>BOND
   1    1    2 1
   2    1    3 2
   3    1    6 1
   4    2    8 1
   5    2    5 2
   6    3    4 1
   7    3   27 1
   8    4    5 1
   9    4   28 1
  10    6    7 am
  11    6   29 1
  12    7   16 2
  13    7   17 1
  14    8    9 am
  15    8   23 2
  16    9   10 1
  17    9   30 1
  18   10   11 ar
  19   10   15 ar
  20   11   12 ar
  21   11   31 1
  22   12   13 ar
  23   12   32 1
  24   13   14 ar
  25   13   24 1
  26   14   15 ar
  27   15   33 1
  28   17   18 ar
  29   17   19 ar
  30   18   26 1
  31   18   22 ar
  32   19   20 ar
  33   19   25 1
  34   20   21 ar
  35   20   34 1
  36   21   22 ar
  37   21   35 1
  38   22   36 1
  39   24   37 1
  40   24   38 1

#	End of record

