#	Name: ASD08070661
#	Creating user name:	WinNT
#	Creation time:	15. 06. 2019 21:15

#	Modifying user name:	WinNT
#	Modification time:	15. 06. 2019 21:15

#	Program:	/corina/corina34_cracker 3.40 0067  02.08.2006

@<TRIPOS>MOLECULE
ASD08070661
  48   48    0    0    0
SMALL
NO_CHARGES


@<TRIPOS>ATOM
   1 C1            -0.0180     1.4742     0.0101 C.2     
   2 C2             0.0021    -0.0041     0.0020 C.ar    
   3 C3             1.2186    -0.6886    -0.0133 C.ar    
   4 C4             1.2303    -2.0679    -0.0203 C.ar    
   5 C5             0.0396    -2.7730    -0.0127 C.ar    
   6 C6            -1.1694    -2.1008     0.0024 C.ar    
   7 C7            -1.1950    -0.7213     0.0154 C.ar    
   8 O8             1.0263     2.0963     0.0035 O.2     
   9 N9            -1.1942     2.1322     0.0193 N.am    
  10 C10            0.0601    -4.2798    -0.0215 C.3     
  11 C11            2.5426    -2.8085    -0.0368 C.3     
  12 C12           -2.5311     4.0925    -0.5733 C.3     
  13 C13           -1.2141     3.5970     0.0274 C.3     
  14 C14           -1.0885     4.1009     1.4665 C.3     
  15 C15            0.2816     3.7116     2.0254 C.3     
  16 C16            1.3768     4.4404     1.2444 C.3     
  17 C17            0.3605     4.1047     3.5020 C.3     
  18 O18           -3.6169     3.6951     0.2663 O.3     
  19 C19           -4.8998     4.1102    -0.2070 C.3     
  20 O20           -5.2887     3.2899    -1.3106 O.3     
  21 C21           -5.7120     1.9769    -0.9381 C.3     
  22 H22            2.1485    -0.1394    -0.0199 H       
  23 H23           -2.0951    -2.6570     0.0083 H       
  24 H24           -2.1395    -0.1977     0.0314 H       
  25 H25           -2.0276     1.6358     0.0206 H       
  26 H26            0.0750    -4.6490     1.0040 H       
  27 H27           -0.8299    -4.6523    -0.5288 H       
  28 H28            0.9498    -4.6281    -0.5460 H       
  29 H29            2.8690    -2.9923     0.9868 H       
  30 H30            2.4166    -3.7596    -0.5542 H       
  31 H31            3.2914    -2.2095    -0.5550 H       
  32 H32           -2.5095     5.1797    -0.6493 H       
  33 H33           -2.6626     3.6615    -1.5658 H       
  34 H34           -0.3801     3.9750    -0.5640 H       
  35 H35           -1.1923     5.1858     1.4820 H       
  36 H36           -1.8712     3.6522     2.0782 H       
  37 H37            0.4211     2.6349     1.9281 H       
  38 H38            1.2373     5.5171     1.3417 H       
  39 H39            2.3529     4.1631     1.6426 H       
  40 H40            1.3206     4.1604     0.1925 H       
  41 H41           -0.4198     3.5854     4.0584 H       
  42 H42            1.3365     3.8274     3.9001 H       
  43 H43            0.2210     5.1813     3.5993 H       
  44 H44           -5.6320     4.0120     0.5944 H       
  45 H45           -4.8495     5.1508    -0.5277 H       
  46 H46           -5.9902     1.4177    -1.8314 H       
  47 H47           -4.8972     1.4637    -0.4273 H       
  48 H48           -6.5714     2.0477    -0.2714 H       
@<TRIPOS>BOND
   1    1    2 1
   2    1    8 2
   3    1    9 am
   4    2    3 ar
   5    2    7 ar
   6    3    4 ar
   7    3   22 1
   8    4    5 ar
   9    4   11 1
  10    5    6 ar
  11    5   10 1
  12    6    7 ar
  13    6   23 1
  14    7   24 1
  15    9   13 1
  16    9   25 1
  17   10   26 1
  18   10   27 1
  19   10   28 1
  20   11   29 1
  21   11   30 1
  22   11   31 1
  23   12   18 1
  24   12   13 1
  25   12   32 1
  26   12   33 1
  27   13   14 1
  28   13   34 1
  29   14   15 1
  30   14   35 1
  31   14   36 1
  32   15   16 1
  33   15   17 1
  34   15   37 1
  35   16   38 1
  36   16   39 1
  37   16   40 1
  38   17   41 1
  39   17   42 1
  40   17   43 1
  41   18   19 1
  42   19   20 1
  43   19   44 1
  44   19   45 1
  45   20   21 1
  46   21   46 1
  47   21   47 1
  48   21   48 1

#	End of record

