#	Name: ASD01510075
#	Creating user name:	WinNT
#	Creation time:	15. 06. 2019 19:21

#	Modifying user name:	WinNT
#	Modification time:	15. 06. 2019 19:21

#	Program:	/corina/corina34_cracker 3.40 0067  02.08.2006

@<TRIPOS>MOLECULE
ASD01510075
  29   30    0    0    0
SMALL
NO_CHARGES


@<TRIPOS>ATOM
   1 C1            -0.0184     1.5028     0.0103 C.3     
   2 C2             0.0021    -0.0041     0.0020 C.ar    
   3 N3             0.0220    -0.6796     1.1391 N.ar    
   4 C4             0.0396    -2.0043     1.1397 C.ar    
   5 N5             0.0379    -2.6988     0.0114 N.ar    
   6 C6             0.0184    -2.0852    -1.1603 C.ar    
   7 C7            -0.0056    -0.6994    -1.1975 C.ar    
   8 I8            -0.0371     0.3218    -3.0265 I       
   9 C9             0.0172    -2.8828    -2.4389 C.3     
  10 N10            0.0608    -2.6791     2.3483 N.3     
  11 C11            0.0780    -4.1342     2.1390 C.3     
  12 C12            0.1613    -4.8385     3.4958 C.3     
  13 O13           -0.9368    -4.4218     4.3119 O.3     
  14 C14           -0.9839    -3.0102     4.5367 C.3     
  15 C15           -1.0788    -2.2874     3.1904 C.3     
  16 H16            1.0042     1.8801     0.0026 H       
  17 H17           -0.5455     1.8639    -0.8728 H       
  18 H18           -0.5286     1.8543     0.9071 H       
  19 H19           -1.0106    -3.0890    -2.7374 H       
  20 H20            0.5159    -2.3130    -3.2230 H       
  21 H21            0.5454    -3.8231    -2.2812 H       
  22 H22           -0.8343    -4.4390     1.6262 H       
  23 H23            0.9438    -4.4048     1.5347 H       
  24 H24            0.1168    -5.9177     3.3491 H       
  25 H25            1.0990    -4.5755     3.9854 H       
  26 H26           -1.8567    -2.7671     5.1427 H       
  27 H27           -0.0795    -2.6941     5.0565 H       
  28 H28           -1.0574    -1.2099     3.3535 H       
  29 H29           -2.0096    -2.5626     2.6943 H       
@<TRIPOS>BOND
   1    1    2 1
   2    1   16 1
   3    1   17 1
   4    1   18 1
   5    2    3 ar
   6    2    7 ar
   7    3    4 ar
   8    4    5 ar
   9    4   10 1
  10    5    6 ar
  11    6    7 ar
  12    6    9 1
  13    7    8 1
  14    9   19 1
  15    9   20 1
  16    9   21 1
  17   10   11 1
  18   10   15 1
  19   11   12 1
  20   11   22 1
  21   11   23 1
  22   12   13 1
  23   12   24 1
  24   12   25 1
  25   13   14 1
  26   14   15 1
  27   14   26 1
  28   14   27 1
  29   15   28 1
  30   15   29 1

#	End of record

