#	Name: ASD01640001
#	Creating user name:	WinNT
#	Creation time:	15. 06. 2019 19:22

#	Modifying user name:	WinNT
#	Modification time:	15. 06. 2019 19:22

#	Program:	/corina/corina34_cracker 3.40 0067  02.08.2006

@<TRIPOS>MOLECULE
ASD01640001
 108  107    0    0    0
SMALL
NO_CHARGES


@<TRIPOS>ATOM
   1 C1            -0.0184     1.5028     0.0103 C.2     
   2 C2             0.0021    -0.0041     0.0020 C.3     
   3 C3            -0.2279    -0.5251     1.4221 C.3     
   4 O4             1.0197     2.1211     0.0037 O.2     
   5 O5            -1.1898     2.1580     0.0194 O.3     
   6 O6            -0.3247    -1.9505     1.3966 O.3     
   7 P7            -0.5670    -2.8367     2.7188 P.3     
   8 O8             0.4750    -2.5218     3.7216 O.2     
   9 O9            -2.0185    -2.5027     3.3301 O.3     
  10 O10           -0.4913    -4.3994     2.3388 O.3     
  11 C11           -0.5625    -5.4418     3.3137 C.3     
  12 C12           -0.4604    -6.7999     2.6166 C.3     
  13 C13            0.8124    -6.8435     1.7686 C.3     
  14 O14            0.8207    -5.7191     0.8499 O.3     
  15 C15            1.8770    -5.6108     0.0289 C.2     
  16 C16            1.9551    -4.4694    -0.9520 C.3     
  17 C17            3.2492    -4.5795    -1.7608 C.3     
  18 C18            3.3284    -3.4207    -2.7566 C.3     
  19 C19            4.6225    -3.5308    -3.5654 C.3     
  20 C20            4.7017    -2.3719    -4.5612 C.3     
  21 C21            5.9958    -2.4821    -5.3700 C.3     
  22 C22            6.0750    -1.3232    -6.3658 C.3     
  23 C23            7.3691    -1.4334    -7.1746 C.3     
  24 C24            7.4484    -0.2745    -8.1704 C.3     
  25 C25            8.7425    -0.3846    -8.9792 C.3     
  26 C26            8.8217     0.7742    -9.9750 C.3     
  27 O27            2.7653    -6.4285     0.0762 O.2     
  28 O28           10.0304     0.6713   -10.7304 O.3     
  29 C29           10.2033     1.7115   -11.6949 C.3     
  30 O30           -1.6182    -6.9935     1.7620 O.3     
  31 C31           -2.6898    -7.5855     2.3125 C.2     
  32 C32           -3.9284    -7.8199     1.4867 C.3     
  33 C33           -4.9928    -8.5042     2.3467 C.3     
  34 C34           -6.2503    -8.7422     1.5083 C.3     
  35 C35           -7.3147    -9.4265     2.3683 C.3     
  36 C36           -8.5722    -9.6645     1.5300 C.3     
  37 C37           -9.6366   -10.3489     2.3900 C.3     
  38 C38          -10.8941   -10.5868     1.5516 C.3     
  39 C39          -11.9585   -11.2712     2.4116 C.3     
  40 C40          -13.2160   -11.5091     1.5732 C.3     
  41 C41          -14.2804   -12.1935     2.4332 C.3     
  42 C42          -15.5379   -12.4314     1.5948 C.3     
  43 O43           -2.6612    -7.9304     3.4701 O.2     
  44 O44          -16.5321   -13.0706     2.3981 O.3     
  45 C45          -17.7534   -13.3395     1.7066 C.3     
  46 N46            1.3055    -0.4734    -0.4867 N.3     
  47 H47           -0.7864    -0.3745    -0.6531 H       
  48 H48            0.6068    -0.2288     2.0574 H       
  49 H49           -1.1526    -0.1051     1.8179 H       
  50 H50           -1.1523     3.1243     0.0245 H       
  51 H51           -2.7512    -2.6853     2.7260 H       
  52 H52            0.2594    -5.3340     4.0215 H       
  53 H53           -1.5114    -5.3771     3.8461 H       
  54 H54           -0.4253    -7.5910     3.3656 H       
  55 H55            1.6848    -6.7872     2.4196 H       
  56 H56            0.8405    -7.7749     1.2031 H       
  57 H57            1.1002    -4.5112    -1.6269 H       
  58 H58            1.9445    -3.5235    -0.4104 H       
  59 H59            4.1041    -4.5377    -1.0859 H       
  60 H60            3.2598    -5.5254    -2.3024 H       
  61 H61            2.4735    -3.4625    -3.4315 H       
  62 H62            3.3178    -2.4748    -2.2150 H       
  63 H63            5.4774    -3.4890    -2.8905 H       
  64 H64            4.6331    -4.4766    -4.1070 H       
  65 H65            3.8468    -2.4138    -5.2361 H       
  66 H66            4.6911    -1.4261    -4.0196 H       
  67 H67            6.8507    -2.4402    -4.6951 H       
  68 H68            6.0064    -3.4279    -5.9116 H       
  69 H69            5.2201    -1.3651    -7.0407 H       
  70 H70            6.0644    -0.3774    -5.8242 H       
  71 H71            8.2240    -1.3915    -6.4997 H       
  72 H72            7.3797    -2.3792    -7.7162 H       
  73 H73            6.5935    -0.3163    -8.8453 H       
  74 H74            7.4378     0.6713    -7.6288 H       
  75 H75            9.5974    -0.3428    -8.3043 H       
  76 H76            8.7531    -1.3305    -9.5208 H       
  77 H77            7.9668     0.7324   -10.6499 H       
  78 H78            8.8111     1.7201    -9.4334 H       
  79 H79           10.2214     2.6768   -11.1889 H       
  80 H80           11.1434     1.5619   -12.2259 H       
  81 H81            9.3771     1.6891   -12.4054 H       
  82 H82           -4.3111    -6.8649     1.1266 H       
  83 H83           -3.6833    -8.4568     0.6368 H       
  84 H84           -4.6101    -9.4592     2.7068 H       
  85 H85           -5.2379    -7.8673     3.1966 H       
  86 H86           -6.6330    -7.7872     1.1482 H       
  87 H87           -6.0052    -9.3791     0.6584 H       
  88 H88           -6.9320   -10.3815     2.7284 H       
  89 H89           -7.5598    -8.7896     3.2182 H       
  90 H90           -8.9549    -8.7095     1.1699 H       
  91 H91           -8.3271   -10.3014     0.6801 H       
  92 H92           -9.2539   -11.3038     2.7501 H       
  93 H93           -9.8817    -9.7119     3.2399 H       
  94 H94          -11.2768    -9.6318     1.1915 H       
  95 H95          -10.6490   -11.2238     0.7017 H       
  96 H96          -11.5758   -12.2261     2.7717 H       
  97 H97          -12.2036   -10.6342     3.2615 H       
  98 H98          -13.5987   -10.5541     1.2131 H       
  99 H99          -12.9709   -12.1461     0.7233 H       
 100 H100         -13.8977   -13.1485     2.7933 H       
 101 H101         -14.5255   -11.5565     3.2831 H       
 102 H102         -15.9206   -11.4764     1.2348 H       
 103 H103         -15.2928   -13.0684     0.7449 H       
 104 H104         -18.4554   -13.8249     2.3845 H       
 105 H105         -18.1820   -12.4034     1.3489 H       
 106 H106         -17.5542   -13.9953     0.8590 H       
 107 H107           1.4531    -0.1967    -1.4457 H       
 108 H108           2.0536    -0.1430     0.1043 H       
@<TRIPOS>BOND
   1    1    2 1
   2    1    4 2
   3    1    5 1
   4    2    3 1
   5    2   46 1
   6    2   47 1
   7    3    6 1
   8    3   48 1
   9    3   49 1
  10    5   50 1
  11    6    7 1
  12    7    8 2
  13    7    9 1
  14    7   10 1
  15    9   51 1
  16   10   11 1
  17   11   12 1
  18   11   52 1
  19   11   53 1
  20   12   13 1
  21   12   30 1
  22   12   54 1
  23   13   14 1
  24   13   55 1
  25   13   56 1
  26   14   15 1
  27   15   16 1
  28   15   27 2
  29   16   17 1
  30   16   57 1
  31   16   58 1
  32   17   18 1
  33   17   59 1
  34   17   60 1
  35   18   19 1
  36   18   61 1
  37   18   62 1
  38   19   20 1
  39   19   63 1
  40   19   64 1
  41   20   21 1
  42   20   65 1
  43   20   66 1
  44   21   22 1
  45   21   67 1
  46   21   68 1
  47   22   23 1
  48   22   69 1
  49   22   70 1
  50   23   24 1
  51   23   71 1
  52   23   72 1
  53   24   25 1
  54   24   73 1
  55   24   74 1
  56   25   26 1
  57   25   75 1
  58   25   76 1
  59   26   28 1
  60   26   77 1
  61   26   78 1
  62   28   29 1
  63   29   79 1
  64   29   80 1
  65   29   81 1
  66   30   31 1
  67   31   32 1
  68   31   43 2
  69   32   33 1
  70   32   82 1
  71   32   83 1
  72   33   34 1
  73   33   84 1
  74   33   85 1
  75   34   35 1
  76   34   86 1
  77   34   87 1
  78   35   36 1
  79   35   88 1
  80   35   89 1
  81   36   37 1
  82   36   90 1
  83   36   91 1
  84   37   38 1
  85   37   92 1
  86   37   93 1
  87   38   39 1
  88   38   94 1
  89   38   95 1
  90   39   40 1
  91   39   96 1
  92   39   97 1
  93   40   41 1
  94   40   98 1
  95   40   99 1
  96   41   42 1
  97   41  100 1
  98   41  101 1
  99   42   44 1
 100   42  102 1
 101   42  103 1
 102   44   45 1
 103   45  104 1
 104   45  105 1
 105   45  106 1
 106   46  107 1
 107   46  108 1

#	End of record

