#	Name: ASD03430693
#	Creating user name:	WinNT
#	Creation time:	15. 06. 2019 20:41

#	Modifying user name:	WinNT
#	Modification time:	15. 06. 2019 20:41

#	Program:	/corina/corina34_cracker 3.40 0067  02.08.2006

@<TRIPOS>MOLECULE
ASD03430693
  58   62    0    0    0
SMALL
NO_CHARGES


@<TRIPOS>ATOM
   1 C1            -0.0167     1.3778     0.0096 C.ar    
   2 C2             0.0021    -0.0041     0.0020 C.ar    
   3 C3             1.2028    -0.6810    -0.0137 C.ar    
   4 C4             2.4095     0.0139    -0.0123 C.ar    
   5 C5             2.3857     1.4048    -0.0086 C.ar    
   6 C6             1.1789     2.0826     0.0020 C.ar    
   7 O7             3.4713    -0.8402    -0.0026 O.3     
   8 C8             1.5520    -2.1448    -0.0468 C.3     
   9 C9             3.0367    -2.1438    -0.4356 C.3     
  10 C10            0.4281    -3.8546     1.0182 C.ar    
  11 C11            1.3204    -2.8166     1.2744 C.ar    
  12 C12            0.7153    -2.9073    -1.0333 C.2     
  13 N13            0.0938    -3.8808    -0.3379 N.am    
  14 O14            0.6178    -2.6901    -2.2225 O.2     
  15 C15            1.7935    -2.5973     2.5488 C.ar    
  16 C16            1.3824    -3.4104     3.5899 C.ar    
  17 C17            0.4954    -4.4436     3.3474 C.ar    
  18 C18            0.0192    -4.6677     2.0725 C.ar    
  19 C19           -0.8252    -4.8529    -0.9350 C.3     
  20 C20           -2.2518    -4.3022    -0.8872 C.3     
  21 C21           -3.2116    -5.3175    -1.5107 C.3     
  22 C22           -4.6509    -4.8234    -1.3513 C.3     
  23 C23           -2.8892    -5.4776    -2.9977 C.3     
  24 O24            1.1647     3.4415     0.0045 O.3     
  25 C25            0.0667     5.5728     0.0163 C.ar    
  26 C26            0.1412     6.2611    -1.1802 C.ar    
  27 C27            0.3023     7.6340    -1.1790 C.ar    
  28 C28            0.3884     8.3188     0.0187 C.ar    
  29 C29            0.3129     7.6306     1.2153 C.ar    
  30 C30            0.1533     6.2576     1.2141 C.ar    
  31 C31           -0.1152     4.0769     0.0151 C.3     
  32 H32           -0.9580     1.9072     0.0170 H       
  33 H33           -0.9267    -0.5552     0.0087 H       
  34 H34            3.3130     1.9584    -0.0137 H       
  35 H35            3.1546    -2.2528    -1.5138 H       
  36 H36            3.5765    -2.9279     0.0952 H       
  37 H37            2.4863    -1.7902     2.7357 H       
  38 H38            1.7535    -3.2390     4.5895 H       
  39 H39            0.1744    -5.0782     4.1602 H       
  40 H40           -0.6734    -5.4763     1.8911 H       
  41 H41           -0.5400    -5.0336    -1.9714 H       
  42 H42           -0.7778    -5.7880    -0.3768 H       
  43 H43           -2.5370    -4.1216     0.1492 H       
  44 H44           -2.2992    -3.3671    -1.4453 H       
  45 H45           -3.0998    -6.2788    -1.0091 H       
  46 H46           -4.7627    -3.8622    -1.8528 H       
  47 H47           -5.3347    -5.5468    -1.7955 H       
  48 H48           -4.8806    -4.7094    -0.2919 H       
  49 H49           -3.0010    -4.5164    -3.4993 H       
  50 H50           -1.8639    -5.8296    -3.1113 H       
  51 H51           -3.5730    -6.2010    -3.4420 H       
  52 H52            0.0739     5.7261    -2.1160 H       
  53 H53            0.3612     8.1716    -2.1138 H       
  54 H54            0.5149     9.3913     0.0197 H       
  55 H55            0.3809     8.1656     2.1510 H       
  56 H56            0.0951     5.7199     2.1489 H       
  57 H57           -0.6757     3.7797    -0.8713 H       
  58 H58           -0.6625     3.7766     0.9086 H       
@<TRIPOS>BOND
   1    1    2 ar
   2    1    6 ar
   3    1   32 1
   4    2    3 ar
   5    2   33 1
   6    3    4 ar
   7    3    8 1
   8    4    5 ar
   9    4    7 1
  10    5    6 ar
  11    5   34 1
  12    6   24 1
  13    7    9 1
  14    8    9 1
  15    8   11 1
  16    8   12 1
  17    9   35 1
  18    9   36 1
  19   10   11 ar
  20   10   13 1
  21   10   18 ar
  22   11   15 ar
  23   12   13 am
  24   12   14 2
  25   13   19 1
  26   15   16 ar
  27   15   37 1
  28   16   17 ar
  29   16   38 1
  30   17   18 ar
  31   17   39 1
  32   18   40 1
  33   19   20 1
  34   19   41 1
  35   19   42 1
  36   20   21 1
  37   20   43 1
  38   20   44 1
  39   21   22 1
  40   21   23 1
  41   21   45 1
  42   22   46 1
  43   22   47 1
  44   22   48 1
  45   23   49 1
  46   23   50 1
  47   23   51 1
  48   24   31 1
  49   25   26 ar
  50   25   30 ar
  51   25   31 1
  52   26   27 ar
  53   26   52 1
  54   27   28 ar
  55   27   53 1
  56   28   29 ar
  57   28   54 1
  58   29   30 ar
  59   29   55 1
  60   30   56 1
  61   31   57 1
  62   31   58 1

#	End of record

