#	Name: ASD01940115
#	Creating user name:	WinNT
#	Creation time:	15. 06. 2019 20:11

#	Modifying user name:	WinNT
#	Modification time:	15. 06. 2019 20:11

#	Program:	/corina/corina34_cracker 3.40 0067  02.08.2006

@<TRIPOS>MOLECULE
ASD01940115
  25   25    0    0    0
SMALL
NO_CHARGES


@<TRIPOS>ATOM
   1 C1            -0.0187     1.5258     0.0104 C.3     
   2 C2             0.0021    -0.0041     0.0020 C.3     
   3 C3             1.3165     0.7789    -0.0063 C.3     
   4 S4            -0.5282     2.3649    -1.5150 S.o2    
   5 O5             0.3847     2.0843    -2.5672 O.2     
   6 O6            -1.9303     2.2395    -1.7086 O.2     
   7 O7            -0.3205     3.8440    -1.2223 O.3     
   8 C8             1.0486     4.2530    -1.2380 C.3     
   9 C9             1.1374     5.7496    -0.9329 C.3     
  10 C10            2.6033     6.1875    -0.9498 C.3     
  11 C11            2.6921     7.6841    -0.6447 C.3     
  12 H12           -0.3072     2.0201     0.9381 H       
  13 H13           -0.2728    -0.5162     0.9241 H       
  14 H14           -0.2904    -0.5063    -0.9201 H       
  15 H15            1.8888     0.7918    -0.9339 H       
  16 H16            1.9064     0.7818     0.9103 H       
  17 H17            1.6032     3.6949    -0.4837 H       
  18 H18            1.4752     4.0568    -2.2217 H       
  19 H19            0.5828     6.3077    -1.6873 H       
  20 H20            0.7109     5.9458     0.0508 H       
  21 H21            3.1579     5.6294    -0.1954 H       
  22 H22            3.0298     5.9913    -1.9335 H       
  23 H23            2.1375     8.2422    -1.3991 H       
  24 H24            2.2655     7.8803     0.3390 H       
  25 H25            3.7364     7.9960    -0.6567 H       
@<TRIPOS>BOND
   1    1    2 1
   2    1    3 1
   3    1    4 1
   4    1   12 1
   5    2    3 1
   6    2   13 1
   7    2   14 1
   8    3   15 1
   9    3   16 1
  10    4    5 2
  11    4    6 2
  12    4    7 1
  13    7    8 1
  14    8    9 1
  15    8   17 1
  16    8   18 1
  17    9   10 1
  18    9   19 1
  19    9   20 1
  20   10   11 1
  21   10   21 1
  22   10   22 1
  23   11   23 1
  24   11   24 1
  25   11   25 1

#	End of record

