#	Name: ASD01811587
#	Creating user name:	WinNT
#	Creation time:	15. 06. 2019 19:27

#	Modifying user name:	WinNT
#	Modification time:	15. 06. 2019 19:27

#	Program:	/corina/corina34_cracker 3.40 0067  02.08.2006

@<TRIPOS>MOLECULE
ASD01811587
  61   65    0    0    0
SMALL
NO_CHARGES


@<TRIPOS>ATOM
   1 C1            -8.0311     2.1699     2.3408 C.1     
   2 C2            -6.8639     2.9707     2.1242 C.ar    
   3 C3            -5.6141     2.5189     2.5525 C.ar    
   4 C4            -4.4938     3.2955     2.3407 C.ar    
   5 C5            -4.6066     4.5197     1.7058 C.ar    
   6 C6            -5.8421     4.9736     1.2791 C.ar    
   7 C7            -6.9696     4.2043     1.4785 C.ar    
   8 N8            -8.9571     1.5346     2.5126 N.1     
   9 N9            -1.9310     7.7928     1.4859 N.am    
  10 C10           -2.4326     7.2891     0.2000 C.3     
  11 C11           -3.6927     6.4559     0.4545 C.3     
  12 C12           -3.3784     5.3626     1.4783 C.3     
  13 C13           -2.9499     6.0062     2.7991 C.3     
  14 C14           -1.6814     6.8343     2.5711 C.3     
  15 F15           -2.3423     4.5560     0.9955 F       
  16 C16           -1.6990     9.1083     1.6647 C.2     
  17 C17           -1.2841     9.6120     2.9909 C.ar    
  18 C18           -2.0174    10.6238     3.6161 C.ar    
  19 C19           -1.6319    11.0954     4.8541 C.ar    
  20 C20           -0.5184    10.5708     5.4843 C.ar    
  21 C21            0.2235     9.5585     4.8696 C.ar    
  22 C22           -0.1643     9.0747     3.6227 C.ar    
  23 O23           -1.8308     9.8806     0.7353 O.2     
  24 C24            1.4146     8.9983     5.5443 C.2     
  25 N25            2.2808     8.0848     5.0101 N.pl3   
  26 C26            3.2279     7.8428     5.9538 C.2     
  27 C27            2.9236     8.6034     7.0341 C.2     
  28 N28            1.8243     9.2992     6.7602 N.2     
  29 C29            4.4215     6.9250     5.8964 C.3     
  30 C30            3.7554     8.5980     8.2943 C.3     
  31 C31            4.6615     7.3590     8.2514 C.3     
  32 O32            5.3007     7.2740     6.9747 O.3     
  33 C33           -3.2319    11.2017     2.9364 C.3     
  34 C34           -4.4244    10.2649     3.1400 C.3     
  35 Cl35          -0.0410    11.1712     7.0416 Cl      
  36 H36           -5.5247     1.5639     3.0488 H       
  37 H37           -3.5264     2.9473     2.6715 H       
  38 H38           -5.9231     5.9303     0.7845 H       
  39 H39           -7.9327     4.5576     1.1407 H       
  40 H40           -2.6751     8.1285    -0.4517 H       
  41 H41           -1.6717     6.6664    -0.2704 H       
  42 H42           -4.4827     7.0998     0.8409 H       
  43 H43           -4.0202     5.9973    -0.4785 H       
  44 H44           -3.7469     6.6544     3.1634 H       
  45 H45           -2.7487     5.2275     3.5348 H       
  46 H46           -0.8592     6.1745     2.2940 H       
  47 H47           -1.4282     7.3736     3.4839 H       
  48 H48           -2.2020    11.8778     5.3328 H       
  49 H49            0.4032     8.2896     3.1451 H       
  50 H50            2.2289     7.6860     4.1274 H       
  51 H51            4.0964     5.8904     6.0061 H       
  52 H52            4.9376     7.0508     4.9446 H       
  53 H53            4.3653     9.5003     8.3380 H       
  54 H54            3.1038     8.5491     9.1667 H       
  55 H55            5.4187     7.4362     9.0316 H       
  56 H56            4.0609     6.4646     8.4168 H       
  57 H57           -3.4589    12.1774     3.3659 H       
  58 H58           -3.0339    11.3112     1.8701 H       
  59 H59           -5.3029    10.6829     2.6484 H       
  60 H60           -4.1975     9.2892     2.7105 H       
  61 H61           -4.6224    10.1554     4.2062 H       
@<TRIPOS>BOND
   1    1    2 1
   2    1    8 3
   3    2    3 ar
   4    2    7 ar
   5    3    4 ar
   6    3   36 1
   7    4    5 ar
   8    4   37 1
   9    5    6 ar
  10    5   12 1
  11    6    7 ar
  12    6   38 1
  13    7   39 1
  14    9   10 1
  15    9   14 1
  16    9   16 am
  17   10   11 1
  18   10   40 1
  19   10   41 1
  20   11   12 1
  21   11   42 1
  22   11   43 1
  23   12   13 1
  24   12   15 1
  25   13   14 1
  26   13   44 1
  27   13   45 1
  28   14   46 1
  29   14   47 1
  30   16   17 1
  31   16   23 2
  32   17   18 ar
  33   17   22 ar
  34   18   19 ar
  35   18   33 1
  36   19   20 ar
  37   19   48 1
  38   20   21 ar
  39   20   35 1
  40   21   22 ar
  41   21   24 1
  42   22   49 1
  43   24   25 1
  44   24   28 2
  45   25   26 1
  46   25   50 1
  47   26   27 2
  48   26   29 1
  49   27   28 1
  50   27   30 1
  51   29   32 1
  52   29   51 1
  53   29   52 1
  54   30   31 1
  55   30   53 1
  56   30   54 1
  57   31   32 1
  58   31   55 1
  59   31   56 1
  60   33   34 1
  61   33   57 1
  62   33   58 1
  63   34   59 1
  64   34   60 1
  65   34   61 1

#	End of record

