#	Name: ASD01900998
#	Creating user name:	WinNT
#	Creation time:	15. 06. 2019 19:53

#	Modifying user name:	WinNT
#	Modification time:	15. 06. 2019 19:53

#	Program:	/corina/corina34_cracker 3.40 0067  02.08.2006

@<TRIPOS>MOLECULE
ASD01900998
  64   68    0    0    0
SMALL
NO_CHARGES


@<TRIPOS>ATOM
   1 C1             0.4415     0.9379     0.1656 C.ar    
   2 C2             0.5501    -0.4346     0.0803 C.ar    
   3 C3             1.7663    -1.0264    -0.2228 C.ar    
   4 C4             2.8897    -0.2517    -0.4387 C.ar    
   5 C5             2.7984     1.1275    -0.3547 C.ar    
   6 C6             1.5641     1.7315    -0.0568 C.ar    
   7 N7             3.9043     1.9475    -0.5485 N.pl3   
   8 C8             3.6959     3.3072    -1.0587 C.3     
   9 N9             2.5569     3.9326    -0.3855 N.am    
  10 C10            1.5002     3.2013     0.0217 C.2     
  11 C11            2.5652     5.3146    -0.1594 C.ar    
  12 C12            3.3200     5.8442     0.8789 C.ar    
  13 C13            3.3276     7.2070     1.1012 C.ar    
  14 C14            2.5816     8.0471     0.2875 C.ar    
  15 C15            1.8273     7.5188    -0.7500 C.ar    
  16 C16            1.8232     6.1567    -0.9771 C.ar    
  17 O17            0.5029     3.7500     0.4501 O.2     
  18 O18            2.5892     9.3889     0.5072 O.3     
  19 C19            4.9557     4.1410    -0.8074 C.3     
  20 C20            3.4275     3.2472    -2.5652 C.3     
  21 C21            3.2766     4.6704    -3.1075 C.3     
  22 N22            4.5044     5.4305    -2.8406 N.3     
  23 C23            4.7604     5.5390    -1.3989 C.3     
  24 C24            4.4482     6.7582    -3.4667 C.3     
  25 C25            5.6914     7.5332    -3.1133 C.ar    
  26 C26            1.8878    10.2044    -0.4335 C.3     
  27 C27            6.7938     7.4887    -3.9462 C.ar    
  28 C28            7.9341     8.1996    -3.6220 C.ar    
  29 C29            7.9719     8.9554    -2.4652 C.ar    
  30 C30            6.8692     9.0007    -1.6328 C.ar    
  31 C31            5.7273     8.2932    -1.9592 C.ar    
  32 C32            6.9105     9.8243    -0.3714 C.3     
  33 C33            9.1363     8.1503    -4.5294 C.3     
  34 H34           -0.5092     1.3943     0.3988 H       
  35 H35           -0.3189    -1.0527     0.2514 H       
  36 H36            1.8364    -2.1020    -0.2905 H       
  37 H37            3.8348    -0.7196    -0.6716 H       
  38 H38            4.7978     1.6264    -0.3496 H       
  39 H39            3.9006     5.1903     1.5127 H       
  40 H40            3.9143     7.6190     1.9089 H       
  41 H41            1.2467     8.1734    -1.3831 H       
  42 H42            1.2394     5.7460    -1.7876 H       
  43 H43            5.1315     4.2208     0.2654 H       
  44 H44            5.8111     3.6608    -1.2826 H       
  45 H45            4.2617     2.7540    -3.0642 H       
  46 H46            2.5101     2.6882    -2.7496 H       
  47 H47            3.0993     4.6325    -4.1823 H       
  48 H48            2.4339     5.1582    -2.6176 H       
  49 H49            3.9121     6.0229    -0.9148 H       
  50 H50            5.6597     6.1322    -1.2333 H       
  51 H51            4.3848     6.6470    -4.5492 H       
  52 H52            3.5708     7.2939    -3.1044 H       
  53 H53            2.3694    10.1305    -1.4085 H       
  54 H54            0.8555     9.8632    -0.5114 H       
  55 H55            1.9034    11.2414    -0.0981 H       
  56 H56            6.7643     6.8982    -4.8499 H       
  57 H57            8.8631     9.5103    -2.2115 H       
  58 H58            4.8645     8.3315    -1.3107 H       
  59 H59            6.6477    10.8565    -0.6027 H       
  60 H60            6.1992     9.4210     0.3493 H       
  61 H61            7.9146     9.7910     0.0515 H       
  62 H62            9.0677     8.9498    -5.2671 H       
  63 H63           10.0432     8.2780    -3.9383 H       
  64 H64            9.1674     7.1873    -5.0392 H       
@<TRIPOS>BOND
   1    1    2 ar
   2    1    6 ar
   3    1   34 1
   4    2    3 ar
   5    2   35 1
   6    3    4 ar
   7    3   36 1
   8    4    5 ar
   9    4   37 1
  10    5    7 1
  11    5    6 ar
  12    6   10 1
  13    7    8 1
  14    7   38 1
  15    8    9 1
  16    8   20 1
  17    8   19 1
  18    9   10 am
  19    9   11 1
  20   10   17 2
  21   11   12 ar
  22   11   16 ar
  23   12   13 ar
  24   12   39 1
  25   13   14 ar
  26   13   40 1
  27   14   15 ar
  28   14   18 1
  29   15   16 ar
  30   15   41 1
  31   16   42 1
  32   18   26 1
  33   19   23 1
  34   19   43 1
  35   19   44 1
  36   20   21 1
  37   20   45 1
  38   20   46 1
  39   21   22 1
  40   21   47 1
  41   21   48 1
  42   22   23 1
  43   22   24 1
  44   23   49 1
  45   23   50 1
  46   24   25 1
  47   24   51 1
  48   24   52 1
  49   25   27 ar
  50   25   31 ar
  51   26   53 1
  52   26   54 1
  53   26   55 1
  54   27   28 ar
  55   27   56 1
  56   28   29 ar
  57   28   33 1
  58   29   30 ar
  59   29   57 1
  60   30   31 ar
  61   30   32 1
  62   31   58 1
  63   32   59 1
  64   32   60 1
  65   32   61 1
  66   33   62 1
  67   33   63 1
  68   33   64 1

#	End of record

