#	Name: ASD03910117
#	Creating user name:	WinNT
#	Creation time:	15. 06. 2019 20:47

#	Modifying user name:	WinNT
#	Modification time:	15. 06. 2019 20:47

#	Program:	/corina/corina34_cracker 3.40 0067  02.08.2006

@<TRIPOS>MOLECULE
ASD03910117
  48   50    0    0    0
SMALL
NO_CHARGES


@<TRIPOS>ATOM
   1 O1            -0.9027     1.5770     0.1786 O.3     
   2 C2            -0.9729     0.2283     0.2898 C.ar    
   3 C3            -0.9838    -0.3715     1.5597 C.ar    
   4 C4            -1.0561    -1.7577     1.6692 C.ar    
   5 C5            -1.1172    -2.5410     0.5152 C.ar    
   6 C6            -1.1056    -1.9303    -0.7468 C.ar    
   7 C7            -1.0399    -0.5599    -0.8525 C.ar    
   8 C8            -1.1931    -4.0046     0.6232 C.2     
   9 O9            -1.2462    -4.6847    -0.3796 O.2     
  10 C10           -0.9185     0.4641     2.7733 C.2     
  11 O11           -0.8551     1.6734     2.6755 O.2     
  12 O12           -0.9291    -0.1137     3.9905 O.3     
  13 O13            2.1714     8.3107    -0.7064 O.3     
  14 C14            2.2413     9.6601    -0.8077 C.ar    
  15 C15            2.3737    10.2567    -2.0556 C.ar    
  16 C16            2.4448    11.6264    -2.1656 C.ar    
  17 C17            2.3842    12.4306    -1.0188 C.ar    
  18 C18            2.2512    11.8411     0.2397 C.ar    
  19 C19            2.1741    10.4552     0.3482 C.ar    
  20 C20            0.3278     2.1265     0.1646 C.2     
  21 C21            0.9409     7.7610    -0.6932 C.2     
  22 C22            2.4610    13.8931    -1.1413 C.2     
  23 O23            2.5769    14.4047    -2.2347 O.2     
  24 O24           -0.0379     8.4593    -0.8635 O.2     
  25 O25            1.3067     1.4280     0.3337 O.2     
  26 C26            1.9081     5.5043    -0.2761 C.ar    
  27 C27            1.7608     4.1496    -0.0713 C.ar    
  28 C28            0.4860     3.5803    -0.0568 C.ar    
  29 C29           -0.6394     4.3833    -0.2516 C.ar    
  30 C30           -0.4920     5.7378    -0.4578 C.ar    
  31 C31            0.7827     6.3072    -0.4714 C.ar    
  32 C32            2.0280     9.8237     1.6731 C.2     
  33 O33            1.9656     8.6139     1.7659 O.2     
  34 O34            1.9637    10.5885     2.7805 O.3     
  35 H35           -1.0645    -2.2250     2.6428 H       
  36 H36           -1.1525    -2.5373    -1.6389 H       
  37 H37           -1.0357    -0.0954    -1.8275 H       
  38 H38           -1.2017    -4.4746     1.5955 H       
  39 H39           -0.8845     0.4750     4.7563 H       
  40 H40            2.4213     9.6427    -2.9428 H       
  41 H41            2.5480    12.0835    -3.1387 H       
  42 H42            2.2042    12.4578     1.1251 H       
  43 H43            2.4143    14.5122    -0.2576 H       
  44 H44            2.8939     5.9454    -0.2829 H       
  45 H45            2.6313     3.5285     0.0794 H       
  46 H46           -1.6254     3.9429    -0.2411 H       
  47 H47           -1.3625     6.3589    -0.6093 H       
  48 H48            1.8680    10.1294     3.6262 H       
@<TRIPOS>BOND
   1    1    2 1
   2    1   20 1
   3    2    3 ar
   4    2    7 ar
   5    3    4 ar
   6    3   10 1
   7    4    5 ar
   8    4   35 1
   9    5    6 ar
  10    5    8 1
  11    6    7 ar
  12    6   36 1
  13    7   37 1
  14    8    9 2
  15    8   38 1
  16   10   11 2
  17   10   12 1
  18   12   39 1
  19   13   14 1
  20   13   21 1
  21   14   15 ar
  22   14   19 ar
  23   15   16 ar
  24   15   40 1
  25   16   17 ar
  26   16   41 1
  27   17   18 ar
  28   17   22 1
  29   18   19 ar
  30   18   42 1
  31   19   32 1
  32   20   25 2
  33   20   28 1
  34   21   24 2
  35   21   31 1
  36   22   23 2
  37   22   43 1
  38   26   27 ar
  39   26   31 ar
  40   26   44 1
  41   27   28 ar
  42   27   45 1
  43   28   29 ar
  44   29   30 ar
  45   29   46 1
  46   30   31 ar
  47   30   47 1
  48   32   33 2
  49   32   34 1
  50   34   48 1

#	End of record

