#	Name: ASD01913794
#	Creating user name:	WinNT
#	Creation time:	15. 06. 2019 20:02

#	Modifying user name:	WinNT
#	Modification time:	15. 06. 2019 20:02

#	Program:	/corina/corina34_cracker 3.40 0067  02.08.2006

@<TRIPOS>MOLECULE
ASD01913794
  41   43    0    0    0
SMALL
NO_CHARGES


@<TRIPOS>ATOM
   1 C1            -0.0168     1.3795    -0.0178 C.ar    
   2 C2             0.0021    -0.0039     0.0116 C.ar    
   3 C3             1.2059    -0.6861     0.0322 C.ar    
   4 C4             2.3968     0.0095     0.0231 C.ar    
   5 C5             2.3857     1.4066    -0.0071 C.ar    
   6 C6             1.1661     2.0886    -0.0273 C.ar    
   7 C7             3.6180     2.1358    -0.0162 C.1     
   8 C8             4.6284     2.7337    -0.0237 C.1     
   9 C9             5.8607     3.4630    -0.0329 C.ar    
  10 C10            5.8580     4.8656    -0.0631 C.ar    
  11 C11            8.2483     4.7810    -0.0487 C.ar    
  12 N12            8.2182     3.4572    -0.0145 N.ar    
  13 C13            7.0836     2.7889    -0.0061 C.ar    
  14 C14            7.0715     5.5235    -0.0708 C.ar    
  15 N15            9.4756     5.4396    -0.0561 N.am    
  16 C16           10.0763     5.6574    -1.2309 C.2     
  17 O17           11.2790     6.2425    -1.3412 O.3     
  18 C18           11.7687     6.9779    -0.1860 C.3     
  19 C19           11.5513     6.1085     1.0601 C.3     
  20 C20           10.0457     5.8664     1.2191 C.3     
  21 O21            9.5066     5.3089    -2.2459 O.2     
  22 C22           12.2783     4.7731     0.8900 C.3     
  23 C23           12.0881     6.8347     2.2952 C.3     
  24 H24           -0.9601     1.9050    -0.0379 H       
  25 H25           -0.9274    -0.5539     0.0188 H       
  26 H26            1.2129    -1.7658     0.0558 H       
  27 H27            3.3355    -0.5242     0.0395 H       
  28 H28            1.1499     3.1682    -0.0509 H       
  29 H29            4.9295     5.4169    -0.0802 H       
  30 H30            7.0988     1.7093     0.0221 H       
  31 H31            7.1073     6.6027    -0.0942 H       
  32 H32           12.8313     7.1885    -0.3071 H       
  33 H33           11.2170     7.9124    -0.0836 H       
  34 H34            9.5638     6.7870     1.5482 H       
  35 H35            9.8810     5.0871     1.9632 H       
  36 H36           13.3449     4.9543     0.7573 H       
  37 H37           12.1216     4.1586     1.7766 H       
  38 H38           11.8862     4.2548     0.0149 H       
  39 H39           11.5609     7.7808     2.4181 H       
  40 H40           11.9320     6.2144     3.1778 H       
  41 H41           13.1537     7.0262     2.1695 H       
@<TRIPOS>BOND
   1    1    2 ar
   2    1    6 ar
   3    1   24 1
   4    2    3 ar
   5    2   25 1
   6    3    4 ar
   7    3   26 1
   8    4    5 ar
   9    4   27 1
  10    5    6 ar
  11    5    7 1
  12    6   28 1
  13    7    8 3
  14    8    9 1
  15    9   10 ar
  16    9   13 ar
  17   10   14 ar
  18   10   29 1
  19   11   12 ar
  20   11   15 1
  21   11   14 ar
  22   12   13 ar
  23   13   30 1
  24   14   31 1
  25   15   16 am
  26   15   20 1
  27   16   17 1
  28   16   21 2
  29   17   18 1
  30   18   19 1
  31   18   32 1
  32   18   33 1
  33   19   20 1
  34   19   22 1
  35   19   23 1
  36   20   34 1
  37   20   35 1
  38   22   36 1
  39   22   37 1
  40   22   38 1
  41   23   39 1
  42   23   40 1
  43   23   41 1

#	End of record

