#	Name: ASD04840018
#	Creating user name:	WinNT
#	Creation time:	15. 06. 2019 20:52

#	Modifying user name:	WinNT
#	Modification time:	15. 06. 2019 20:52

#	Program:	/corina/corina34_cracker 3.40 0067  02.08.2006

@<TRIPOS>MOLECULE
ASD04840018
  70   74    0    0    0
SMALL
NO_CHARGES


@<TRIPOS>ATOM
   1 C1             0.2248     1.4727    -0.0300 C.3     
   2 C2             0.2085    -0.0571    -0.0230 C.3     
   3 O3             0.7608    -0.5527    -1.2711 O.3     
   4 C4             0.9121    -1.8867    -1.3862 C.2     
   5 O5             0.6797    -2.6087    -0.4369 O.2     
   6 C6             1.3596    -2.4702    -2.6637 C.ar    
   7 C7             1.7363    -1.6395    -3.7221 C.ar    
   8 C8             2.1542    -2.1915    -4.9137 C.ar    
   9 C9             2.2023    -3.5672    -5.0679 C.ar    
  10 C10            1.8324    -4.4002    -4.0303 C.ar    
  11 C11            1.4153    -3.8625    -2.8221 C.ar    
  12 O12            1.0517    -4.6794    -1.8021 O.3     
  13 C13            1.2375    -6.0828    -1.9971 C.3     
  14 C14            0.8930    -6.8164    -0.7266 C.ar    
  15 C15            0.3682    -6.1080     0.3414 C.ar    
  16 C16            0.0474    -6.7751     1.5168 C.ar    
  17 N17           -0.4805    -6.0933     2.6047 N.pl3   
  18 C18            0.3245    -5.8161     3.7135 C.ar    
  19 C19           -0.1802    -5.0641     4.7647 C.ar    
  20 C20            0.6211    -4.7853     5.8736 C.ar    
  21 C21            1.9294    -5.2633     5.9239 C.ar    
  22 C22            2.4333    -6.0184     4.8663 C.ar    
  23 C23            1.6247    -6.2982     3.7629 C.ar    
  24 C24            3.8196    -6.5271     4.9154 C.2     
  25 O25            4.2892    -7.1042     3.9551 O.2     
  26 O26            4.5628    -6.3511     6.0250 O.3     
  27 C27            5.8737    -6.9752     6.0463 C.3     
  28 C28            0.0829    -3.9840     6.9924 C.2     
  29 O29           -1.0572    -3.5674     6.9477 O.2     
  30 O30            0.8567    -3.7155     8.0619 O.3     
  31 C31            0.2622    -2.9229     9.1233 C.3     
  32 C32            0.2741    -8.1678     1.5714 C.ar    
  33 C33            0.8121    -8.8118     0.4370 C.ar    
  34 N34            1.0930    -8.1154    -0.6610 N.ar    
  35 C35            1.0449   -10.2585     0.5008 C.ar    
  36 C36            1.5742   -10.9592    -0.5847 C.ar    
  37 C37            1.7759   -12.3066    -0.4863 C.ar    
  38 C38            1.4603   -12.9888     0.6826 C.ar    
  39 C39            0.9418   -12.3316     1.7597 C.ar    
  40 C40            0.7225   -10.9483     1.6913 C.ar    
  41 C41            0.1860   -10.2415     2.7919 C.ar    
  42 C42           -0.0276    -8.9101     2.7327 C.ar    
  43 H43            1.2562     1.8250    -0.0493 H       
  44 H44           -0.3004     1.8377    -0.9126 H       
  45 H45           -0.2696     1.8454     0.8671 H       
  46 H46            0.8083    -0.4231     0.8103 H       
  47 H47           -0.8173    -0.4091     0.0855 H       
  48 H48            1.6998    -0.5663    -3.6067 H       
  49 H49            2.4452    -1.5485    -5.7312 H       
  50 H50            2.5307    -3.9911    -6.0054 H       
  51 H51            1.8723    -5.4718    -4.1586 H       
  52 H52            0.5888    -6.4267    -2.8026 H       
  53 H53            2.2773    -6.2787    -2.2592 H       
  54 H54            0.2097    -5.0428     0.2611 H       
  55 H55           -1.4079    -5.8093     2.5955 H       
  56 H56           -1.1939    -4.6937     4.7249 H       
  57 H57            2.5514    -5.0488     6.7803 H       
  58 H58            2.0144    -6.8836     2.9432 H       
  59 H59            5.7604    -8.0591     6.0223 H       
  60 H60            6.4450    -6.6503     5.1768 H       
  61 H61            6.3996    -6.6849     6.9558 H       
  62 H62            0.9903    -2.7805     9.9218 H       
  63 H63           -0.0377    -1.9525     8.7277 H       
  64 H64           -0.6124    -3.4407     9.5171 H       
  65 H65            1.8225   -10.4386    -1.4977 H       
  66 H66            2.1850   -12.8479    -1.3266 H       
  67 H67            1.6275   -14.0543     0.7389 H       
  68 H68            0.7008   -12.8746     2.6616 H       
  69 H69           -0.0577   -10.7773     3.6975 H       
  70 H70           -0.4389    -8.4022     3.5925 H       
@<TRIPOS>BOND
   1    1    2 1
   2    1   43 1
   3    1   44 1
   4    1   45 1
   5    2    3 1
   6    2   46 1
   7    2   47 1
   8    3    4 1
   9    4    5 2
  10    4    6 1
  11    6    7 ar
  12    6   11 ar
  13    7    8 ar
  14    7   48 1
  15    8    9 ar
  16    8   49 1
  17    9   10 ar
  18    9   50 1
  19   10   11 ar
  20   10   51 1
  21   11   12 1
  22   12   13 1
  23   13   14 1
  24   13   52 1
  25   13   53 1
  26   14   15 ar
  27   14   34 ar
  28   15   16 ar
  29   15   54 1
  30   16   17 1
  31   16   32 ar
  32   17   18 1
  33   17   55 1
  34   18   19 ar
  35   18   23 ar
  36   19   20 ar
  37   19   56 1
  38   20   21 ar
  39   20   28 1
  40   21   22 ar
  41   21   57 1
  42   22   23 ar
  43   22   24 1
  44   23   58 1
  45   24   25 2
  46   24   26 1
  47   26   27 1
  48   27   59 1
  49   27   60 1
  50   27   61 1
  51   28   29 2
  52   28   30 1
  53   30   31 1
  54   31   62 1
  55   31   63 1
  56   31   64 1
  57   32   33 ar
  58   32   42 ar
  59   33   34 ar
  60   33   35 ar
  61   35   36 ar
  62   35   40 ar
  63   36   37 ar
  64   36   65 1
  65   37   38 ar
  66   37   66 1
  67   38   39 ar
  68   38   67 1
  69   39   40 ar
  70   39   68 1
  71   40   41 ar
  72   41   42 ar
  73   41   69 1
  74   42   70 1

#	End of record

