#	Name: ASD00061003
#	Creating user name:	WinNT
#	Creation time:	15. 06. 2019 18:29

#	Modifying user name:	WinNT
#	Modification time:	15. 06. 2019 18:29

#	Program:	/corina/corina34_cracker 3.40 0067  02.08.2006

@<TRIPOS>MOLECULE
ASD00061003
  44   46    0    0    0
SMALL
NO_CHARGES


@<TRIPOS>ATOM
   1 C1            -0.0168     1.3885     0.0097 C.ar    
   2 C2             0.0021    -0.0041     0.0020 C.ar    
   3 N3            -1.1529    -0.7628    -0.0263 N.am    
   4 C4            -2.2822    -0.5638    -0.6577 C.2     
   5 N5            -2.8047     0.5461    -1.1642 N.am    
   6 C6            -2.1691     1.8332    -1.1662 C.3     
   7 C7            -1.3251     2.1137     0.0515 C.3     
   8 C8             1.1674     2.0999     0.0022 C.ar    
   9 C9             2.3811     1.4402     0.0022 C.ar    
  10 C10            2.4105     0.0575     0.0107 C.ar    
  11 C11            1.2340    -0.6592     0.0111 C.ar    
  12 O12           -2.9643    -1.5595    -0.8047 O.2     
  13 C13           -4.1353     0.4500    -1.7697 C.3     
  14 C14           -5.1848     0.7114    -0.7203 C.ar    
  15 C15           -5.6331     1.9998    -0.4970 C.ar    
  16 C16           -6.5958     2.2396     0.4656 C.ar    
  17 C17           -7.1104     1.1908     1.2047 C.ar    
  18 C18           -6.6628    -0.0977     0.9808 C.ar    
  19 C19           -5.7032    -0.3380     0.0151 C.ar    
  20 C20           -1.1055    -1.9858     0.7788 C.3     
  21 C21           -1.5884    -1.6872     2.1748 C.2     
  22 O22           -1.9364    -0.5677     2.4671 O.2     
  23 O23           -1.6319    -2.6649     3.0934 O.3     
  24 C24           -2.1077    -2.3050     4.4172 C.3     
  25 H25           -1.5352     1.9044    -2.0501 H       
  26 H26           -2.9408     2.5998    -1.2360 H       
  27 H27           -1.8734     1.8042     0.9412 H       
  28 H28           -1.1339     3.1852     0.1105 H       
  29 H29            1.1441     3.1796    -0.0041 H       
  30 H30            3.3035     2.0020    -0.0048 H       
  31 H31            3.3577    -0.4614     0.0171 H       
  32 H32            1.2656    -1.7388     0.0185 H       
  33 H33           -4.2262     1.1884    -2.5663 H       
  34 H34           -4.2753    -0.5490    -2.1826 H       
  35 H35           -5.2310     2.8191    -1.0745 H       
  36 H36           -6.9456     3.2463     0.6405 H       
  37 H37           -7.8620     1.3783     1.9572 H       
  38 H38           -7.0646    -0.9170     1.5584 H       
  39 H39           -5.3535    -1.3447    -0.1598 H       
  40 H40           -1.7460    -2.7433     0.3271 H       
  41 H41           -0.0805    -2.3542     0.8200 H       
  42 H42           -3.1266    -1.9245     4.3460 H       
  43 H43           -2.0925    -3.1848     5.0604 H       
  44 H44           -1.4611    -1.5354     4.8389 H       
@<TRIPOS>BOND
   1    1    2 ar
   2    1    8 ar
   3    1    7 1
   4    2    3 1
   5    2   11 ar
   6    3    4 am
   7    3   20 1
   8    4    5 am
   9    4   12 2
  10    5    6 1
  11    5   13 1
  12    6    7 1
  13    6   25 1
  14    6   26 1
  15    7   27 1
  16    7   28 1
  17    8    9 ar
  18    8   29 1
  19    9   10 ar
  20    9   30 1
  21   10   11 ar
  22   10   31 1
  23   11   32 1
  24   13   14 1
  25   13   33 1
  26   13   34 1
  27   14   15 ar
  28   14   19 ar
  29   15   16 ar
  30   15   35 1
  31   16   17 ar
  32   16   36 1
  33   17   18 ar
  34   17   37 1
  35   18   19 ar
  36   18   38 1
  37   19   39 1
  38   20   21 1
  39   20   40 1
  40   20   41 1
  41   21   22 2
  42   21   23 1
  43   23   24 1
  44   24   42 1
  45   24   43 1
  46   24   44 1

#	End of record

