#	Name: ASD03090919
#	Creating user name:	WinNT
#	Creation time:	15. 06. 2019 20:29

#	Modifying user name:	WinNT
#	Modification time:	15. 06. 2019 20:29

#	Program:	/corina/corina34_cracker 3.40 0067  02.08.2006

@<TRIPOS>MOLECULE
ASD03090919
  52   56    0    0    0
SMALL
NO_CHARGES


@<TRIPOS>ATOM
   1 N1            -0.0188     1.4673    -0.0839 N.am    
   2 C2             0.0008    -0.0024    -0.1166 C.3     
   3 C3             1.4805    -0.4407    -0.1296 C.3     
   4 C4             2.2127     0.7901     0.4675 C.3     
   5 C5             1.3708     1.9592    -0.1018 C.3     
   6 C6            -1.1243     2.2375    -0.0491 C.2     
   7 O7            -2.2278     1.7198    -0.0429 O.2     
   8 N8            -1.0107     3.5684    -0.0216 N.2     
   9 S9            -3.7398     3.7959     0.0278 S.3     
  10 C10           -2.1024     4.3290     0.0127 C.2     
  11 N11           -2.1550     5.6846     0.0435 N.pl3   
  12 C12           -3.3921     6.2525     0.0763 C.2     
  13 C13           -4.4303     5.4271     0.0752 C.2     
  14 C14           -5.8904     5.7985     0.1077 C.3     
  15 N15           -6.5288     5.3802    -1.1428 N.pl3   
  16 C16           -7.8912     5.6194    -1.3463 C.ar    
  17 C17           -8.4974     5.2233    -2.5314 C.ar    
  18 C18           -9.8435     5.4601    -2.7301 C.ar    
  19 C19          -10.5886     6.0920    -1.7489 C.ar    
  20 C20           -9.9864     6.4878    -0.5666 C.ar    
  21 C21           -8.6417     6.2483    -0.3614 C.ar    
  22 F22          -11.9051     6.3231    -1.9456 F       
  23 O23            2.2838     8.9664     0.0179 O.3     
  24 C24            1.6021    10.1983     0.3191 C.3     
  25 O25            0.2568     9.9656    -0.1383 O.3     
  26 C26            0.0719     8.6157    -0.0557 C.ar    
  27 C27            1.3184     8.0005     0.0404 C.ar    
  28 C28           -1.0791     7.8463    -0.0548 C.ar    
  29 C29           -0.9896     6.4641     0.0421 C.ar    
  30 C30            0.2535     5.8542     0.1379 C.ar    
  31 C31            1.4031     6.6213     0.1375 C.ar    
  32 F32            1.6174    10.4445     1.6962 F       
  33 F33            2.1811    11.2638    -0.3785 F       
  34 H34           -0.4957    -0.3996     0.7687 H       
  35 H35           -0.4996    -0.3599    -1.0166 H       
  36 H36            1.6280    -1.3193     0.4984 H       
  37 H37            1.8169    -0.6327    -1.1485 H       
  38 H38            2.1757     0.7761     1.5568 H       
  39 H39            3.2424     0.8416     0.1138 H       
  40 H40            1.6794     2.1873    -1.1220 H       
  41 H41            1.4693     2.8410     0.5313 H       
  42 H42           -3.5217     7.3244     0.1021 H       
  43 H43           -6.3738     5.2989     0.9473 H       
  44 H44           -5.9883     6.8781     0.2222 H       
  45 H45           -6.0062     4.9373    -1.8296 H       
  46 H46           -7.9165     4.7307    -3.2972 H       
  47 H47          -10.3152     5.1526    -3.6517 H       
  48 H48          -10.5694     6.9808     0.1973 H       
  49 H49           -8.1732     6.5534     0.5626 H       
  50 H50           -2.0463     8.3212    -0.1288 H       
  51 H51            0.3225     4.7791     0.2132 H       
  52 H52            2.3693     6.1445     0.2116 H       
@<TRIPOS>BOND
   1    1    2 1
   2    1    5 1
   3    1    6 am
   4    2    3 1
   5    2   34 1
   6    2   35 1
   7    3    4 1
   8    3   36 1
   9    3   37 1
  10    4    5 1
  11    4   38 1
  12    4   39 1
  13    5   40 1
  14    5   41 1
  15    6    7 2
  16    6    8 1
  17    8   10 2
  18    9   10 1
  19    9   13 1
  20   10   11 1
  21   11   12 1
  22   11   29 1
  23   12   13 2
  24   12   42 1
  25   13   14 1
  26   14   15 1
  27   14   43 1
  28   14   44 1
  29   15   16 1
  30   15   45 1
  31   16   17 ar
  32   16   21 ar
  33   17   18 ar
  34   17   46 1
  35   18   19 ar
  36   18   47 1
  37   19   20 ar
  38   19   22 1
  39   20   21 ar
  40   20   48 1
  41   21   49 1
  42   23   24 1
  43   23   27 1
  44   24   25 1
  45   24   32 1
  46   24   33 1
  47   25   26 1
  48   26   27 ar
  49   26   28 ar
  50   27   31 ar
  51   28   29 ar
  52   28   50 1
  53   29   30 ar
  54   30   31 ar
  55   30   51 1
  56   31   52 1

#	End of record

