#	Name: ASD01912963
#	Creating user name:	WinNT
#	Creation time:	15. 06. 2019 20:00

#	Modifying user name:	WinNT
#	Modification time:	15. 06. 2019 20:00

#	Program:	/corina/corina34_cracker 3.40 0067  02.08.2006

@<TRIPOS>MOLECULE
ASD01912963
  34   36    0    0    0
SMALL
NO_CHARGES


@<TRIPOS>ATOM
   1 C1             0.0208     1.4194     0.0496 C.2     
   2 C2             0.0517    -0.0122     0.0511 C.1     
   3 C3             0.0771    -1.1860     0.0523 C.1     
   4 C4             0.1081    -2.6176     0.0538 C.ar    
   5 C5            -1.0849    -3.3461     0.0757 C.ar    
   6 C6             1.3314    -3.2938     0.0275 C.ar    
   7 C7             1.3531    -4.6727     0.0286 C.ar    
   8 C8             0.1680    -5.3869     0.0553 C.ar    
   9 C9            -1.0470    -4.7246     0.0765 C.ar    
  10 N10            1.0633     2.1979     0.0302 N.2     
  11 C11            0.8619     3.5045     0.0334 C.2     
  12 C12           -0.4397     3.8618     0.0511 C.2     
  13 S13           -1.4343     2.4109     0.0659 S.3     
  14 C14            1.9949     4.5224     0.0256 C.3     
  15 C15            1.4528     5.8743    -0.4426 C.3     
  16 N16            0.2069     6.1696     0.2809 N.am    
  17 C17           -0.9481     5.2862     0.0479 C.3     
  18 C18            0.1251     7.2137     1.1292 C.2     
  19 O19            1.1142     7.8683     1.3825 O.2     
  20 C20           -1.1955     7.5680     1.7630 C.3     
  21 H21           -2.0338    -2.8306     0.0923 H       
  22 H22            2.2570    -2.7378     0.0060 H       
  23 H23            2.2973    -5.1965     0.0084 H       
  24 H24            0.1913    -6.4666     0.0553 H       
  25 H25           -1.9677    -5.2887     0.0972 H       
  26 H26            2.4019     4.6220     1.0319 H       
  27 H27            2.7792     4.1893    -0.6541 H       
  28 H28            2.1873     6.6527    -0.2363 H       
  29 H29            1.2520     5.8354    -1.5132 H       
  30 H30           -1.4007     5.5154    -0.9168 H       
  31 H31           -1.6820     5.4192     0.8429 H       
  32 H32           -1.9796     6.9358     1.3464 H       
  33 H33           -1.1355     7.4104     2.8399 H       
  34 H34           -1.4264     8.6139     1.5611 H       
@<TRIPOS>BOND
   1    1    2 1
   2    1   10 2
   3    1   13 1
   4    2    3 3
   5    3    4 1
   6    4    5 ar
   7    4    6 ar
   8    5    9 ar
   9    5   21 1
  10    6    7 ar
  11    6   22 1
  12    7    8 ar
  13    7   23 1
  14    8    9 ar
  15    8   24 1
  16    9   25 1
  17   10   11 1
  18   11   12 2
  19   11   14 1
  20   12   13 1
  21   12   17 1
  22   14   15 1
  23   14   26 1
  24   14   27 1
  25   15   16 1
  26   15   28 1
  27   15   29 1
  28   16   17 1
  29   16   18 am
  30   17   30 1
  31   17   31 1
  32   18   20 1
  33   18   19 2
  34   20   32 1
  35   20   33 1
  36   20   34 1

#	End of record

