#	Name: ASD06718001
#	Creating user name:	WinNT
#	Creation time:	15. 06. 2019 21:08

#	Modifying user name:	WinNT
#	Modification time:	15. 06. 2019 21:08

#	Program:	/corina/corina34_cracker 3.40 0067  02.08.2006

@<TRIPOS>MOLECULE
ASD06718001
  15   15    0    0    0
SMALL
NO_CHARGES


@<TRIPOS>ATOM
   1 C1            -0.0178     1.4636     0.0101 C.2     
   2 C2             0.0021    -0.0041     0.0020 C.ar    
   3 C3            -1.2020    -0.7276     0.0096 C.ar    
   4 C4            -1.1696    -2.1137     0.0019 C.ar    
   5 C5             0.0408    -2.7783    -0.0132 C.ar    
   6 C6             1.2314    -2.0693    -0.0207 C.ar    
   7 C7             1.2209    -0.6921    -0.0191 C.ar    
   8 O8             1.0243     2.0844     0.0035 O.2     
   9 O9            -2.3899    -0.0738     0.0249 O.3     
  10 H10           -0.9604     1.9909     0.0174 H       
  11 H11           -2.0926    -2.6746     0.0081 H       
  12 H12            0.0596    -3.8582    -0.0187 H       
  13 H13            2.1723    -2.5993    -0.0325 H       
  14 H14            2.1514    -0.1440    -0.0296 H       
  15 H15           -2.7430     0.1208    -0.8540 H       
@<TRIPOS>BOND
   1    1    2 1
   2    1    8 2
   3    1   10 1
   4    2    3 ar
   5    2    7 ar
   6    3    4 ar
   7    3    9 1
   8    4    5 ar
   9    4   11 1
  10    5    6 ar
  11    5   12 1
  12    6    7 ar
  13    6   13 1
  14    7   14 1
  15    9   15 1

#	End of record

