#	Name: ASD03090720
#	Creating user name:	WinNT
#	Creation time:	15. 06. 2019 20:29

#	Modifying user name:	WinNT
#	Modification time:	15. 06. 2019 20:29

#	Program:	/corina/corina34_cracker 3.40 0067  02.08.2006

@<TRIPOS>MOLECULE
ASD03090720
  44   45    0    0    0
SMALL
NO_CHARGES


@<TRIPOS>ATOM
   1 N1            -0.0162     1.3436     0.0094 N.am    
   2 C2             0.0188     0.1475     0.6297 C.2     
   3 O3             1.0721    -0.2859     1.0555 O.2     
   4 N4            -1.1136    -0.5681     0.7781 N.am    
   5 O5            -1.7396    -3.6100     2.2165 O.3     
   6 N6            -2.0868    -2.6078     1.6359 N.2     
   7 C7            -1.0773    -1.8058     1.4200 C.2     
   8 C8             0.0640    -2.4482     1.9696 C.2     
   9 C9            -0.4228    -3.6068     2.4692 C.2     
  10 C10            0.3618    -4.6843     3.1724 C.3     
  11 C11           -0.1883    -4.8749     4.5873 C.3     
  12 C12            0.2360    -5.9963     2.3953 C.3     
  13 C13            1.1456     2.1270    -0.0704 C.ar    
  14 C14            1.0461     3.5106    -0.1988 C.ar    
  15 C15            2.1942     4.2809    -0.2769 C.ar    
  16 C16            3.4405     3.6738    -0.2271 C.ar    
  17 C17            3.5377     2.2962    -0.0998 C.ar    
  18 C18            2.3934     1.5252    -0.0159 C.ar    
  19 C19            4.8930     1.6394    -0.0470 C.3     
  20 O20            4.5679     4.4300    -0.3038 O.3     
  21 C21            4.3941     5.8423    -0.4344 C.3     
  22 O22           -0.1765     4.1038    -0.2478 O.3     
  23 C23           -0.2025     5.5264    -0.3802 C.3     
  24 H24           -0.8434     1.6611    -0.3853 H       
  25 H25           -1.9538    -0.2223     0.4384 H       
  26 H26            1.0840    -2.0934     1.9853 H       
  27 H27            1.4108    -4.3933     3.2265 H       
  28 H28           -1.2373    -5.1659     4.5331 H       
  29 H29            0.3792    -5.6543     5.0958 H       
  30 H30           -0.0987    -3.9402     5.1409 H       
  31 H31            0.6279    -5.8606     1.3873 H       
  32 H32            0.8035    -6.7757     2.9038 H       
  33 H33           -0.8130    -6.2873     2.3411 H       
  34 H34            2.1194     5.3536    -0.3768 H       
  35 H35            2.4715     0.4531     0.0878 H       
  36 H36            5.2259     1.5761     0.9890 H       
  37 H37            4.8275     0.6368    -0.4695 H       
  38 H38            5.6057     2.2303    -0.6222 H       
  39 H39            3.8350     6.0569    -1.3452 H       
  40 H40            3.8447     6.2220     0.4271 H       
  41 H41            5.3699     6.3254    -0.4848 H       
  42 H42            0.3091     5.9797     0.4688 H       
  43 H43            0.3001     5.8146    -1.3035 H       
  44 H44           -1.2366     5.8700    -0.4070 H       
@<TRIPOS>BOND
   1    1    2 am
   2    1   13 1
   3    1   24 1
   4    2    3 2
   5    2    4 am
   6    4    7 1
   7    4   25 1
   8    5    6 1
   9    5    9 1
  10    6    7 2
  11    7    8 1
  12    8    9 2
  13    8   26 1
  14    9   10 1
  15   10   11 1
  16   10   12 1
  17   10   27 1
  18   11   28 1
  19   11   29 1
  20   11   30 1
  21   12   31 1
  22   12   32 1
  23   12   33 1
  24   13   14 ar
  25   13   18 ar
  26   14   15 ar
  27   14   22 1
  28   15   16 ar
  29   15   34 1
  30   16   17 ar
  31   16   20 1
  32   17   18 ar
  33   17   19 1
  34   18   35 1
  35   19   36 1
  36   19   37 1
  37   19   38 1
  38   20   21 1
  39   21   39 1
  40   21   40 1
  41   21   41 1
  42   22   23 1
  43   23   42 1
  44   23   43 1
  45   23   44 1

#	End of record

