#	Name: ASD01910259
#	Creating user name:	WinNT
#	Creation time:	15. 06. 2019 19:55

#	Modifying user name:	WinNT
#	Modification time:	15. 06. 2019 19:55

#	Program:	/corina/corina34_cracker 3.40 0067  02.08.2006

@<TRIPOS>MOLECULE
ASD01910259
  50   54    0    0    0
SMALL
NO_CHARGES


@<TRIPOS>ATOM
   1 C1             0.4063     0.7737     0.2286 C.2     
   2 C2             1.6015     1.6897     0.1683 C.3     
   3 C3             1.7222     2.2799    -1.2385 C.3     
   4 C4             2.9545     3.1846    -1.3100 C.3     
   5 C5             2.7951     4.3376    -0.3140 C.3     
   6 N6             2.5337     3.7780     1.0192 N.am    
   7 C7             1.4267     2.8257     1.1811 C.3     
   8 C8             3.2950     4.1317     2.0736 C.2     
   9 O9             3.0234     3.7199     3.1848 O.2     
  10 N10            0.4195    -0.5038     0.5163 N.2     
  11 C11           -0.8710    -0.9044     0.4502 C.2     
  12 N12           -1.5846     0.1445     0.1290 N.2     
  13 O13           -0.8667     1.1141     0.0041 O.3     
  14 C14           -1.3807    -2.2740     0.6949 C.ar    
  15 C15           -0.7612    -3.3651     0.1118 C.ar    
  16 C16           -1.2333    -4.6532     0.3370 C.ar    
  17 C17           -2.3147    -4.8779     1.1342 C.ar    
  18 C18           -2.9743    -3.7985     1.7465 C.ar    
  19 C19           -2.5027    -2.4803     1.5322 C.ar    
  20 C20            4.4595     5.0196     1.8792 C.ar    
  21 C21            4.3678     6.1179     1.0215 C.ar    
  22 C22            5.4574     6.9431     0.8437 C.ar    
  23 C23            6.6430     6.6844     1.5145 C.ar    
  24 C24            6.7396     5.5951     2.3669 C.ar    
  25 C25            5.6542     4.7670     2.5568 C.ar    
  26 F26            7.7080     7.4964     1.3366 F       
  27 C27           -4.0921    -4.0032     2.5741 C.ar    
  28 C28           -4.7070    -2.9352     3.1519 C.ar    
  29 C29           -4.2453    -1.6386     2.9353 C.ar    
  30 C30           -3.1616    -1.4041     2.1442 C.ar    
  31 H31            2.5040     1.1262     0.4051 H       
  32 H32            1.8221     1.4724    -1.9638 H       
  33 H33            0.8299     2.8632    -1.4654 H       
  34 H34            3.8446     2.6075    -1.0590 H       
  35 H35            3.0531     3.5861    -2.3185 H       
  36 H36            3.7107     4.9284    -0.2892 H       
  37 H37            1.9589     4.9682    -0.6159 H       
  38 H38            0.4789     3.3330     1.0011 H       
  39 H39            1.4395     2.4189     2.1922 H       
  40 H40            0.0978    -3.2145    -0.5252 H       
  41 H41           -0.7342    -5.4902    -0.1285 H       
  42 H42           -2.6658    -5.8864     1.2956 H       
  43 H43            3.4449     6.3200     0.4982 H       
  44 H44            5.3877     7.7925     0.1803 H       
  45 H45            7.6655     5.3979     2.8867 H       
  46 H46            5.7304     3.9190     3.2212 H       
  47 H47           -4.4612    -5.0028     2.7502 H       
  48 H48           -5.5656    -3.0951     3.7873 H       
  49 H49           -4.7513    -0.8080     3.4048 H       
  50 H50           -2.8145    -0.3939     1.9849 H       
@<TRIPOS>BOND
   1    1   10 2
   2    1    2 1
   3    1   13 1
   4    2    3 1
   5    2    7 1
   6    2   31 1
   7    3    4 1
   8    3   32 1
   9    3   33 1
  10    4    5 1
  11    4   34 1
  12    4   35 1
  13    5    6 1
  14    5   36 1
  15    5   37 1
  16    6    7 1
  17    6    8 am
  18    7   38 1
  19    7   39 1
  20    8    9 2
  21    8   20 1
  22   10   11 1
  23   11   12 2
  24   11   14 1
  25   12   13 1
  26   14   15 ar
  27   14   19 ar
  28   15   16 ar
  29   15   40 1
  30   16   17 ar
  31   16   41 1
  32   17   18 ar
  33   17   42 1
  34   18   19 ar
  35   18   27 ar
  36   19   30 ar
  37   20   21 ar
  38   20   25 ar
  39   21   22 ar
  40   21   43 1
  41   22   23 ar
  42   22   44 1
  43   23   24 ar
  44   23   26 1
  45   24   25 ar
  46   24   45 1
  47   25   46 1
  48   27   28 ar
  49   27   47 1
  50   28   29 ar
  51   28   48 1
  52   29   30 ar
  53   29   49 1
  54   30   50 1

#	End of record

