#	Name: ASD01948165
#	Creating user name:	WinNT
#	Creation time:	15. 06. 2019 20:13

#	Modifying user name:	WinNT
#	Modification time:	15. 06. 2019 20:13

#	Program:	/corina/corina34_cracker 3.40 0067  02.08.2006

@<TRIPOS>MOLECULE
ASD01948165
  40   42    0    0    0
SMALL
NO_CHARGES


@<TRIPOS>ATOM
   1 C1             1.8303     1.3943     1.0516 C.ar    
   2 C2             1.8183     0.0031     1.0460 C.ar    
   3 C3             2.3985    -0.6970     2.0946 C.ar    
   4 C4             2.9860    -0.0114     3.1406 C.ar    
   5 C5             2.9965     1.3715     3.1446 C.ar    
   6 C6             2.4244     2.0739     2.0986 C.ar    
   7 N7             1.2223    -0.6887    -0.0143 N.pl3   
   8 C8             3.8078    -1.9690    -0.4391 C.2     
   9 C9             2.6129    -2.7145    -0.2963 C.2     
  10 C10            1.3226    -2.0638    -0.0843 C.2     
  11 N11            4.9608    -2.6472    -0.6386 N.am    
  12 F12            1.2672     2.0799     0.0328 F       
  13 C13            2.6712    -4.1171    -0.3610 C.2     
  14 N14            1.5232    -4.8490    -0.2250 N.am    
  15 C15            0.3329    -4.2577    -0.0298 C.2     
  16 C16            0.2010    -2.8697     0.0449 C.2     
  17 C17            4.9545    -4.0073    -0.6978 C.2     
  18 N18            3.8508    -4.7117    -0.5553 N.2     
  19 O19            3.7971    -0.7517    -0.3886 O.2     
  20 C20            1.5938    -6.3107    -0.2943 C.3     
  21 O21           -0.6627    -4.9543     0.0853 O.2     
  22 I22            3.8876     2.4053     4.7341 I       
  23 C23            6.2207    -1.9156    -0.7919 C.3     
  24 N24            6.1363    -4.6650    -0.9011 N.pl3   
  25 C25            6.1580    -6.1283    -0.9690 C.3     
  26 H26            2.3905    -1.7770     2.0933 H       
  27 H27            3.4374    -0.5563     3.9565 H       
  28 H28            2.4344     3.1539     2.1045 H       
  29 H29            0.7387    -0.2021    -0.7000 H       
  30 H30           -0.7706    -2.4252     0.2024 H       
  31 H31            1.7579    -6.7143     0.7048 H       
  32 H32            0.6581    -6.7010    -0.6947 H       
  33 H33            2.4178    -6.6042    -0.9447 H       
  34 H34            6.0307    -0.8449    -0.7170 H       
  35 H35            6.9140    -2.2174    -0.0068 H       
  36 H36            6.6550    -2.1402    -1.7661 H       
  37 H37            6.9601    -4.1626    -1.0003 H       
  38 H38            5.7847    -6.5410    -0.0318 H       
  39 H39            5.5254    -6.4632    -1.7910 H       
  40 H40            7.1799    -6.4692    -1.1347 H       
@<TRIPOS>BOND
   1    1    2 ar
   2    1   12 1
   3    1    6 ar
   4    2    3 ar
   5    2    7 1
   6    3    4 ar
   7    3   26 1
   8    4    5 ar
   9    4   27 1
  10    5    6 ar
  11    5   22 1
  12    6   28 1
  13    7   10 1
  14    7   29 1
  15    8    9 1
  16    8   19 2
  17    8   11 am
  18    9   10 1
  19    9   13 2
  20   10   16 2
  21   11   17 1
  22   11   23 1
  23   13   14 1
  24   13   18 1
  25   14   15 am
  26   14   20 1
  27   15   16 1
  28   15   21 2
  29   16   30 1
  30   17   18 2
  31   17   24 1
  32   20   31 1
  33   20   32 1
  34   20   33 1
  35   23   34 1
  36   23   35 1
  37   23   36 1
  38   24   25 1
  39   24   37 1
  40   25   38 1
  41   25   39 1
  42   25   40 1

#	End of record

