#	Name: ASD06170054
#	Creating user name:	WinNT
#	Creation time:	15. 06. 2019 21:05

#	Modifying user name:	WinNT
#	Modification time:	15. 06. 2019 21:05

#	Program:	/corina/corina34_cracker 3.40 0067  02.08.2006

@<TRIPOS>MOLECULE
ASD06170054
  70   74    0    0    0
SMALL
NO_CHARGES


@<TRIPOS>ATOM
   1 N1             0.1667     2.2158    -1.3868 N.pl3   
   2 N2            -0.0293     0.8658    -1.0808 N.am    
   3 C3             1.1757     0.2881    -0.8950 C.2     
   4 C4             2.1810     1.3433    -1.0979 C.2     
   5 C5             1.4835     2.4975    -1.3963 C.2     
   6 C6             3.6385     1.1981    -1.0011 C.2     
   7 O7             4.3598     2.1591    -1.1938 O.2     
   8 N8             4.1778     0.0005    -0.6989 N.am    
   9 C9            -1.2672     0.2221    -0.9832 C.ar    
  10 C10           -2.2341     0.4212    -1.9601 C.ar    
  11 C11           -3.4553    -0.2163    -1.8610 C.ar    
  12 C12           -3.7159    -1.0518    -0.7903 C.ar    
  13 C13           -2.7553    -1.2522     0.1840 C.ar    
  14 C14           -1.5301    -0.6221     0.0879 C.ar    
  15 O15            1.3892    -0.8766    -0.6144 O.2     
  16 C16            2.0935     3.8450    -1.6849 C.3     
  17 C17           -0.4130     4.2029    -2.6893 C.3     
  18 C18           -0.9017     3.1795    -1.6623 C.3     
  19 C19           -1.2856     3.8993    -0.3679 C.3     
  20 C20           -1.6587     2.8673     0.6981 C.3     
  21 O21           -0.1786     4.6784     0.0901 O.3     
  22 C22            5.5633    -0.1228    -0.5375 C.ar    
  23 C23            6.2762     0.8679     0.1254 C.ar    
  24 C24            7.6437     0.7450     0.2845 C.ar    
  25 C25            8.3040    -0.3695    -0.2188 C.ar    
  26 C26            7.5913    -1.3577    -0.8804 C.ar    
  27 C27            6.2237    -1.2380    -1.0351 C.ar    
  28 O28            9.6496    -0.4906    -0.0628 O.3     
  29 N29           11.0342    -1.9906     3.5207 N.ar    
  30 C30            9.7534    -1.7581     3.3532 C.ar    
  31 C31            9.2506    -1.2532     2.1610 C.ar    
  32 C32           10.1122    -0.9833     1.1122 C.ar    
  33 C33           11.4894    -1.2375     1.3036 C.ar    
  34 C34           12.4231    -0.9886     0.2871 C.ar    
  35 C35           13.7426    -1.2433     0.5022 C.ar    
  36 C36           14.1822    -1.7519     1.7278 C.ar    
  37 C37           13.2904    -2.0071     2.7449 C.ar    
  38 C38           11.9235    -1.7528     2.5493 C.ar    
  39 O39           15.5046    -1.9975     1.9172 O.3     
  40 C40           16.3803    -1.7128     0.8244 C.3     
  41 F41            8.3383     1.7082     0.9288 F       
  42 H42            3.6062    -0.7760    -0.5931 H       
  43 H43           -2.0314     1.0741    -2.7962 H       
  44 H44           -4.2076    -0.0619    -2.6203 H       
  45 H45           -4.6719    -1.5486    -0.7148 H       
  46 H46           -2.9620    -1.9053     1.0190 H       
  47 H47           -0.7788    -0.7823     0.8470 H       
  48 H48            2.1075     4.4405    -0.7720 H       
  49 H49            3.1126     3.7123    -2.0479 H       
  50 H50            1.5014     4.3569    -2.4435 H       
  51 H51           -1.2546     4.5417    -3.2935 H       
  52 H52            0.0288     5.0545    -2.1718 H       
  53 H53            0.3350     3.7417    -3.3342 H       
  54 H54           -1.7713     2.6547    -2.0578 H       
  55 H55           -2.1375     4.5531    -0.5547 H       
  56 H56           -0.7793     2.2771     0.9560 H       
  57 H57           -2.0258     3.3798     1.5873 H       
  58 H58           -2.4368     2.2097     0.3106 H       
  59 H59            0.5894     4.1535     0.3540 H       
  60 H60            5.7624     1.7338     0.5159 H       
  61 H61            8.1049    -2.2236    -1.2713 H       
  62 H62            5.6687    -2.0102    -1.5470 H       
  63 H63            9.0716    -1.9650     4.1649 H       
  64 H64            8.1913    -1.0727     2.0526 H       
  65 H65           12.0957    -0.5961    -0.6643 H       
  66 H66           14.4583    -1.0506    -0.2833 H       
  67 H67           13.6401    -2.4007     3.6878 H       
  68 H68           16.0916    -2.3130    -0.0385 H       
  69 H69           16.3124    -0.6550     0.5704 H       
  70 H70           17.4050    -1.9533     1.1078 H       
@<TRIPOS>BOND
   1    1    2 1
   2    1    5 1
   3    1   18 1
   4    2    3 am
   5    2    9 1
   6    3    4 1
   7    3   15 2
   8    4    5 2
   9    4    6 1
  10    5   16 1
  11    6    7 2
  12    6    8 am
  13    8   22 1
  14    8   42 1
  15    9   10 ar
  16    9   14 ar
  17   10   11 ar
  18   10   43 1
  19   11   12 ar
  20   11   44 1
  21   12   13 ar
  22   12   45 1
  23   13   14 ar
  24   13   46 1
  25   14   47 1
  26   16   48 1
  27   16   49 1
  28   16   50 1
  29   17   18 1
  30   17   51 1
  31   17   52 1
  32   17   53 1
  33   18   19 1
  34   18   54 1
  35   19   20 1
  36   19   21 1
  37   19   55 1
  38   20   56 1
  39   20   57 1
  40   20   58 1
  41   21   59 1
  42   22   23 ar
  43   22   27 ar
  44   23   24 ar
  45   23   60 1
  46   24   25 ar
  47   24   41 1
  48   25   26 ar
  49   25   28 1
  50   26   27 ar
  51   26   61 1
  52   27   62 1
  53   28   32 1
  54   29   30 ar
  55   29   38 ar
  56   30   31 ar
  57   30   63 1
  58   31   32 ar
  59   31   64 1
  60   32   33 ar
  61   33   34 ar
  62   33   38 ar
  63   34   35 ar
  64   34   65 1
  65   35   36 ar
  66   35   66 1
  67   36   37 ar
  68   36   39 1
  69   37   38 ar
  70   37   67 1
  71   39   40 1
  72   40   68 1
  73   40   69 1
  74   40   70 1

#	End of record

