#	Name: ASD03090374
#	Creating user name:	WinNT
#	Creation time:	15. 06. 2019 20:28

#	Modifying user name:	WinNT
#	Modification time:	15. 06. 2019 20:28

#	Program:	/corina/corina34_cracker 3.40 0067  02.08.2006

@<TRIPOS>MOLECULE
ASD03090374
  36   38    0    0    0
SMALL
NO_CHARGES


@<TRIPOS>ATOM
   1 C1            -0.0179     1.4706     0.0101 C.2     
   2 C2             0.0021    -0.0041     0.0020 C.ar    
   3 C3             1.2216    -0.6880    -0.0133 C.ar    
   4 C4             1.2372    -2.0588    -0.0203 C.ar    
   5 C5             0.0396    -2.7703    -0.0122 C.ar    
   6 C6            -1.1768    -2.0917     0.0030 C.ar    
   7 C7            -1.1984    -0.7210     0.0155 C.ar    
   8 O8             1.0268     2.0929     0.0035 O.2     
   9 N9            -1.1941     2.1285     0.0193 N.am    
  10 S10            0.0635    -4.5322    -0.0219 S.3     
  11 C11           -1.6982    -4.9642    -0.0067 C.3     
  12 F12           -2.3195    -4.4287    -1.1400 F       
  13 F13           -1.8370    -6.3563    -0.0128 F       
  14 F14           -2.2968    -4.4409     1.1444 F       
  15 C15           -1.2140     3.5934     0.0273 C.3     
  16 C16           -5.2338     4.9553    -0.0600 C.ar    
  17 C17           -4.6183     4.7413     1.1885 C.ar    
  18 C18           -3.2964     4.2933     1.2347 C.ar    
  19 C19           -2.6415     4.0763     0.0367 C.ar    
  20 C20           -3.3094     4.3074    -1.1558 C.ar    
  21 N21           -4.5556     4.7300    -1.1772 N.ar    
  22 N22           -6.5118     5.3929     0.1927 N.pl3   
  23 C23           -5.6203     5.0776     2.2013 C.2     
  24 C24           -6.7250     5.4628     1.5433 C.2     
  25 H25            2.1504    -0.1369    -0.0199 H       
  26 H26            2.1788    -2.5876    -0.0325 H       
  27 H27           -2.1037    -2.6459     0.0089 H       
  28 H28           -2.1417    -0.1954     0.0315 H       
  29 H29           -2.0275     1.6321     0.0205 H       
  30 H30           -0.7009     3.9588     0.9169 H       
  31 H31           -0.7094     3.9685    -0.8630 H       
  32 H32           -2.8003     4.1215     2.1785 H       
  33 H33           -2.7946     4.1368    -2.0898 H       
  34 H34           -7.1665     5.6195    -0.4863 H       
  35 H35           -5.4933     5.0299     3.2728 H       
  36 H36           -7.6465     5.7780     2.0101 H       
@<TRIPOS>BOND
   1    1    2 1
   2    1    8 2
   3    1    9 am
   4    2    3 ar
   5    2    7 ar
   6    3    4 ar
   7    3   25 1
   8    4    5 ar
   9    4   26 1
  10    5    6 ar
  11    5   10 1
  12    6    7 ar
  13    6   27 1
  14    7   28 1
  15    9   15 1
  16    9   29 1
  17   10   11 1
  18   11   12 1
  19   11   13 1
  20   11   14 1
  21   15   19 1
  22   15   30 1
  23   15   31 1
  24   16   17 ar
  25   16   21 ar
  26   16   22 1
  27   17   18 ar
  28   17   23 1
  29   18   19 ar
  30   18   32 1
  31   19   20 ar
  32   20   21 ar
  33   20   33 1
  34   22   24 1
  35   22   34 1
  36   23   24 2
  37   23   35 1
  38   24   36 1

#	End of record

