#	Name: ASD03731244
#	Creating user name:	WinNT
#	Creation time:	15. 06. 2019 20:45

#	Modifying user name:	WinNT
#	Modification time:	15. 06. 2019 20:45

#	Program:	/corina/corina34_cracker 3.40 0067  02.08.2006

@<TRIPOS>MOLECULE
ASD03731244
  60   66    0    0    0
SMALL
NO_CHARGES


@<TRIPOS>ATOM
   1 N1            -0.0162     1.3436     0.0094 N.am    
   2 C2             0.0558     0.0126     0.2093 C.2     
   3 O3             1.1396    -0.5296     0.3076 O.2     
   4 N4            -1.0736    -0.7172     0.3001 N.am    
   5 C5            -0.9954    -2.1639     0.5173 C.3     
   6 C6            -2.4084    -2.7471     0.5817 C.3     
   7 O7             2.5524    -7.0754     3.4711 O.3     
   8 C8             3.0232    -8.3614     3.9155 C.3     
   9 O9             1.8594    -8.9649     4.5109 O.3     
  10 C10            0.7897    -8.3991     3.8781 C.ar    
  11 C11            1.2163    -7.2368     3.2397 C.ar    
  12 C12           -0.5349    -8.7888     3.7928 C.ar    
  13 C13           -1.4494    -8.0256     3.0733 C.ar    
  14 C14           -1.0132    -6.8621     2.4468 C.ar    
  15 C15            0.3081    -6.4741     2.5248 C.ar    
  16 O16           -2.7786    -8.2371     2.8522 O.3     
  17 C17           -2.2203    -6.2528     1.7852 C.3     
  18 C18           -3.3925    -7.0036     2.4315 C.3     
  19 N19           -2.3301    -4.1938     0.7990 N.am    
  20 C20           -2.3082    -4.7718     2.0165 C.2     
  21 C21           -2.2009    -6.4222     0.2950 C.ar    
  22 C22           -2.1333    -7.5172    -0.5373 C.ar    
  23 C23           -2.1352    -7.3453    -1.9101 C.ar    
  24 C24           -2.2046    -6.0714    -2.4442 C.ar    
  25 C25           -2.2715    -4.9714    -1.6147 C.ar    
  26 C26           -2.2704    -5.1350    -0.2316 C.ar    
  27 O27           -2.3514    -4.2065     3.0887 O.2     
  28 O28            4.5871     4.4197     0.0234 O.3     
  29 C29            5.8330     3.7392    -0.1621 C.3     
  30 C30            5.6772     2.7636    -1.3365 C.3     
  31 O31            4.6340     1.8375    -1.0142 O.3     
  32 C32            3.4861     2.3621    -0.5043 C.ar    
  33 C33            3.4627     3.6510     0.0164 C.ar    
  34 C34            2.3302     1.5971    -0.5066 C.ar    
  35 C35            1.1525     2.1168     0.0124 C.ar    
  36 C36            1.1329     3.4028     0.5340 C.ar    
  37 C37            2.2846     4.1664     0.5352 C.ar    
  38 H38           -0.8766     1.7656    -0.1404 H       
  39 H39           -1.9383    -0.2846     0.2217 H       
  40 H40           -0.4488    -2.6257    -0.3049 H       
  41 H41           -0.4771    -2.3630     1.4553 H       
  42 H42           -2.9549    -2.2853     1.4040 H       
  43 H43           -2.9267    -2.5481    -0.3562 H       
  44 H44            3.3721    -8.9545     3.0703 H       
  45 H45            3.8149    -8.2445     4.6555 H       
  46 H46           -0.8614    -9.6914     4.2879 H       
  47 H47            0.6351    -5.5730     2.0274 H       
  48 H48           -4.1805    -7.1923     1.7025 H       
  49 H49           -3.7801    -6.4522     3.2882 H       
  50 H50           -2.0790    -8.5110    -0.1181 H       
  51 H51           -2.0831    -8.2039    -2.5632 H       
  52 H52           -2.2060    -5.9372    -3.5158 H       
  53 H53           -2.3248    -3.9798    -2.0392 H       
  54 H54            6.6171     4.4624    -0.3865 H       
  55 H55            6.0889     3.1877     0.7426 H       
  56 H56            5.4139     3.3143    -2.2395 H       
  57 H57            6.6116     2.2247    -1.4932 H       
  58 H58            2.3460     0.5963    -0.9123 H       
  59 H59            0.2169     3.8071     0.9388 H       
  60 H60            2.2671     5.1669     0.9415 H       
@<TRIPOS>BOND
   1    1    2 am
   2    1   35 1
   3    1   38 1
   4    2    3 2
   5    2    4 am
   6    4    5 1
   7    4   39 1
   8    5    6 1
   9    5   40 1
  10    5   41 1
  11    6   19 1
  12    6   42 1
  13    6   43 1
  14    7    8 1
  15    7   11 1
  16    8    9 1
  17    8   44 1
  18    8   45 1
  19    9   10 1
  20   10   11 ar
  21   10   12 ar
  22   11   15 ar
  23   12   13 ar
  24   12   46 1
  25   13   14 ar
  26   13   16 1
  27   14   15 ar
  28   14   17 1
  29   15   47 1
  30   16   18 1
  31   17   18 1
  32   17   20 1
  33   17   21 1
  34   18   48 1
  35   18   49 1
  36   19   20 am
  37   19   26 1
  38   20   27 2
  39   21   22 ar
  40   21   26 ar
  41   22   23 ar
  42   22   50 1
  43   23   24 ar
  44   23   51 1
  45   24   25 ar
  46   24   52 1
  47   25   26 ar
  48   25   53 1
  49   28   29 1
  50   28   33 1
  51   29   30 1
  52   29   54 1
  53   29   55 1
  54   30   31 1
  55   30   56 1
  56   30   57 1
  57   31   32 1
  58   32   33 ar
  59   32   34 ar
  60   33   37 ar
  61   34   35 ar
  62   34   58 1
  63   35   36 ar
  64   36   37 ar
  65   36   59 1
  66   37   60 1

#	End of record

