#	Name: ASD03090038
#	Creating user name:	WinNT
#	Creation time:	15. 06. 2019 20:28

#	Modifying user name:	WinNT
#	Modification time:	15. 06. 2019 20:28

#	Program:	/corina/corina34_cracker 3.40 0067  02.08.2006

@<TRIPOS>MOLECULE
ASD03090038
  45   47    0    0    0
SMALL
NO_CHARGES


@<TRIPOS>ATOM
   1 N1            -0.0647     1.3582     0.1314 N.am    
   2 C2            -0.2640     0.2185     0.8226 C.2     
   3 O3             0.6135    -0.2172     1.5427 O.2     
   4 N4            -1.4361    -0.4382     0.7158 N.am    
   5 O5            -2.5956    -3.3213     2.1501 O.3     
   6 N6            -2.7189    -2.3593     1.4280 N.2     
   7 C7            -1.6424    -1.6176     1.4311 C.2     
   8 C8            -0.7248    -2.2543     2.3085 C.2     
   9 C9            -1.3930    -3.3470     2.7425 C.2     
  10 C10           -0.8849    -4.3904     3.7040 C.3     
  11 C11            1.1277     2.0798     0.2967 C.ar    
  12 C12            1.1386     3.4623     0.1119 C.ar    
  13 C13            2.3186     4.1716     0.2767 C.ar    
  14 C14            3.4839     3.5051     0.6246 C.ar    
  15 C15            3.4705     2.1303     0.8074 C.ar    
  16 C16            2.2946     1.4204     0.6495 C.ar    
  17 N17           -0.0388     4.1321    -0.2396 N.pl3   
  18 C18            0.5188     7.6480     0.6610 C.ar    
  19 C19            0.5689     6.2714     0.7248 C.ar    
  20 C20           -0.0664     5.5235    -0.2667 C.ar    
  21 C21           -0.7297     6.2065    -1.2863 C.ar    
  22 C22           -0.7332     7.5854    -1.2769 C.ar    
  23 N23           -0.1196     8.2572    -0.3206 N.ar    
  24 O24            4.6413     4.2003     0.7863 O.3     
  25 C25            5.8037     3.4505     1.1449 C.3     
  26 C26            6.9987     4.3962     1.2810 C.3     
  27 H27           -0.7436     1.6776    -0.4834 H       
  28 H28           -2.1362    -0.0906     0.1414 H       
  29 H29            0.2750    -1.9391     2.5686 H       
  30 H30           -1.6536    -5.1478     3.8578 H       
  31 H31            0.0094    -4.8586     3.2928 H       
  32 H32           -0.6431    -3.9194     4.6568 H       
  33 H33            2.3303     5.2420     0.1339 H       
  34 H34            4.3795     1.6138     1.0780 H       
  35 H35            2.2862     0.3506     0.7969 H       
  36 H36           -0.8356     3.6267    -0.4644 H       
  37 H37            1.0039     8.2351     1.4267 H       
  38 H38            1.0932     5.7793     1.5305 H       
  39 H39           -1.2332     5.6630    -2.0721 H       
  40 H40           -1.2442     8.1225    -2.0622 H       
  41 H41            5.6309     2.9443     2.0947 H       
  42 H42            6.0119     2.7109     0.3717 H       
  43 H43            7.8854     3.8243     1.5545 H       
  44 H44            7.1715     4.9024     0.3312 H       
  45 H45            6.7905     5.1357     2.0542 H       
@<TRIPOS>BOND
   1    1    2 am
   2    1   11 1
   3    1   27 1
   4    2    3 2
   5    2    4 am
   6    4    7 1
   7    4   28 1
   8    5    6 1
   9    5    9 1
  10    6    7 2
  11    7    8 1
  12    8    9 2
  13    8   29 1
  14    9   10 1
  15   10   30 1
  16   10   31 1
  17   10   32 1
  18   11   12 ar
  19   11   16 ar
  20   12   13 ar
  21   12   17 1
  22   13   14 ar
  23   13   33 1
  24   14   15 ar
  25   14   24 1
  26   15   16 ar
  27   15   34 1
  28   16   35 1
  29   17   20 1
  30   17   36 1
  31   18   19 ar
  32   18   23 ar
  33   18   37 1
  34   19   20 ar
  35   19   38 1
  36   20   21 ar
  37   21   22 ar
  38   21   39 1
  39   22   23 ar
  40   22   40 1
  41   24   25 1
  42   25   26 1
  43   25   41 1
  44   25   42 1
  45   26   43 1
  46   26   44 1
  47   26   45 1

#	End of record

