#	Name: ASD01810737
#	Creating user name:	WinNT
#	Creation time:	15. 06. 2019 19:25

#	Modifying user name:	WinNT
#	Modification time:	15. 06. 2019 19:25

#	Program:	/corina/corina34_cracker 3.40 0067  02.08.2006

@<TRIPOS>MOLECULE
ASD01810737
  30   31    0    0    0
SMALL
NO_CHARGES


@<TRIPOS>ATOM
   1 N1            -0.0178     1.4642     0.0101 N.3     
   2 C2             0.0021    -0.0041     0.0020 C.3     
   3 C3             0.6797    -0.4993    -1.2777 C.3     
   4 C4             2.1079     0.0494    -1.3384 C.3     
   5 C5             2.0615     1.5788    -1.2797 C.3     
   6 C6             1.3439     2.0138     0.0000 C.3     
   7 C7             2.8809    -0.4635    -0.1956 C.1     
   8 N8             3.4775    -0.8594     0.6864 N.1     
   9 C9             2.7602    -0.3856    -2.6253 C.ar    
  10 C10            3.9217     0.2345    -3.0461 C.ar    
  11 C11            4.5141    -0.1736    -4.2312 C.ar    
  12 C12            3.9134    -1.1947    -4.9519 C.ar    
  13 C13            2.7526    -1.7675    -4.4685 C.ar    
  14 N14            2.2195    -1.3571    -3.3341 N.ar    
  15 C15            5.7805     0.4774    -4.7247 C.3     
  16 H16           -0.5582     1.8228    -0.7629 H       
  17 H17            0.5557    -0.3645     0.8690 H       
  18 H18           -1.0198    -0.3814     0.0413 H       
  19 H19            0.7083    -1.5890    -1.2760 H       
  20 H20            0.1187    -0.1507    -2.1448 H       
  21 H21            3.0774     1.9739    -1.2795 H       
  22 H22            1.5223     1.9601    -2.1469 H       
  23 H23            1.2966     3.1021     0.0379 H       
  24 H24            1.8912     1.6439     0.8670 H       
  25 H25            4.3619     1.0271    -2.4593 H       
  26 H26            4.3472    -1.5377    -5.8796 H       
  27 H27            2.2786    -2.5633    -5.0239 H       
  28 H28            6.6429    -0.0576    -4.3269 H       
  29 H29            5.8044     0.4463    -5.8140 H       
  30 H30            5.8102     1.5144    -4.3901 H       
@<TRIPOS>BOND
   1    1    2 1
   2    1    6 1
   3    1   16 1
   4    2    3 1
   5    2   17 1
   6    2   18 1
   7    3    4 1
   8    3   19 1
   9    3   20 1
  10    4    5 1
  11    4    7 1
  12    4    9 1
  13    5    6 1
  14    5   21 1
  15    5   22 1
  16    6   23 1
  17    6   24 1
  18    7    8 3
  19    9   10 ar
  20    9   14 ar
  21   10   11 ar
  22   10   25 1
  23   11   12 ar
  24   11   15 1
  25   12   13 ar
  26   12   26 1
  27   13   14 ar
  28   13   27 1
  29   15   28 1
  30   15   29 1
  31   15   30 1

#	End of record

