#	Name: ASD05143296
#	Creating user name:	WinNT
#	Creation time:	15. 06. 2019 20:57

#	Modifying user name:	WinNT
#	Modification time:	15. 06. 2019 20:57

#	Program:	/corina/corina34_cracker 3.40 0067  02.08.2006

@<TRIPOS>MOLECULE
ASD05143296
  41   43    0    0    0
SMALL
NO_CHARGES


@<TRIPOS>ATOM
   1 C1             0.4173     1.1920     0.2694 C.2     
   2 N2             0.3834    -0.0704    -0.1089 N.2     
   3 S3            -1.2635    -0.4765    -0.2096 S.3     
   4 C4            -1.8239     1.0815     0.2649 C.2     
   5 N5            -0.7382     1.7942     0.4707 N.2     
   6 N6            -3.1362     1.4935     0.4053 N.pl3   
   7 C7            -3.4190     2.7700     0.9015 C.ar    
   8 C8            -4.7301     3.1296     1.1927 C.ar    
   9 C9            -5.0054     4.3916     1.6833 C.ar    
  10 C10           -3.9785     5.2962     1.8841 C.ar    
  11 C11           -2.6739     4.9412     1.5954 C.ar    
  12 C12           -2.3906     3.6792     1.1100 C.ar    
  13 C13            1.4551    -0.8867    -0.3679 C.ar    
  14 C14            2.3867    -0.5318    -1.3443 C.ar    
  15 C15            1.6221    -2.0744     0.3489 C.ar    
  16 C16            2.7032    -2.8905     0.0831 C.ar    
  17 C17            3.6198    -2.5343    -0.8903 C.ar    
  18 C18            3.4628    -1.3570    -1.5997 C.ar    
  19 C19            1.7019     1.9033     0.4664 C.ar    
  20 C20            1.7931     3.2697     0.2024 C.ar    
  21 C21            2.8232     1.2105     0.9219 C.ar    
  22 C22            4.0167     1.8786     1.1039 C.ar    
  23 C23            4.1024     3.2330     0.8353 C.ar    
  24 C24            2.9922     3.9268     0.3882 C.ar    
  25 Cl25          -6.0194     1.9950     0.9397 Cl      
  26 Cl26           0.4731    -2.5222     1.5708 Cl      
  27 H27           -3.8607     0.8972     0.1596 H       
  28 H28           -6.0235     4.6721     1.9098 H       
  29 H29           -4.1964     6.2823     2.2670 H       
  30 H30           -1.8746     5.6502     1.7531 H       
  31 H31           -1.3710     3.4029     0.8848 H       
  32 H32            2.2655     0.3868    -1.8993 H       
  33 H33            2.8340    -3.8088     0.6364 H       
  34 H34            4.4641    -3.1761    -1.0942 H       
  35 H35            4.1820    -1.0851    -2.3581 H       
  36 H36            0.9272     3.8123    -0.1470 H       
  37 H37            2.7574     0.1532     1.1322 H       
  38 H38            4.8856     1.3432     1.4570 H       
  39 H39            5.0386     3.7517     0.9796 H       
  40 H40            3.0651     4.9841     0.1802 H       
  41 Br41          10.0386    11.2823     7.2670 Br      
@<TRIPOS>BOND
   1    1    2 2
   2    1   19 1
   3    1    5 1
   4    2    3 1
   5    2   13 1
   6    3    4 1
   7    4    5 2
   8    4    6 1
   9    6    7 1
  10    6   27 1
  11    7    8 ar
  12    7   12 ar
  13    8    9 ar
  14    8   25 1
  15    9   10 ar
  16    9   28 1
  17   10   11 ar
  18   10   29 1
  19   11   12 ar
  20   11   30 1
  21   12   31 1
  22   13   14 ar
  23   13   15 ar
  24   14   18 ar
  25   14   32 1
  26   15   16 ar
  27   15   26 1
  28   16   17 ar
  29   16   33 1
  30   17   18 ar
  31   17   34 1
  32   18   35 1
  33   19   20 ar
  34   19   21 ar
  35   20   24 ar
  36   20   36 1
  37   21   22 ar
  38   21   37 1
  39   22   23 ar
  40   22   38 1
  41   23   24 ar
  42   23   39 1
  43   24   40 1

#	End of record

