#	Name: ASD09120013
#	Creating user name:	WinNT
#	Creation time:	15. 06. 2019 21:21

#	Modifying user name:	WinNT
#	Modification time:	15. 06. 2019 21:21

#	Program:	/corina/corina34_cracker 3.40 0067  02.08.2006

@<TRIPOS>MOLECULE
ASD09120013
  39   41    0    0    0
SMALL
NO_CHARGES


@<TRIPOS>ATOM
   1 C1             0.0829     1.3817     0.0808 C.ar    
   2 C2             0.1516     0.0091    -0.0369 C.ar    
   3 C3            -0.4619    -0.6296    -1.1002 C.ar    
   4 C4            -1.1486     0.1021    -2.0522 C.ar    
   5 C5            -1.2260     1.4769    -1.9469 C.ar    
   6 C6            -0.6081     2.1277    -0.8757 C.ar    
   7 N7             0.8840    -0.7828     0.9767 N.pl3   
   8 O8             1.4250    -0.2224     1.9130 O.2     
   9 O9             0.9458    -1.9950     0.8744 O.2     
  10 C10           -0.6861     3.5981    -0.7557 C.2     
  11 O11           -1.2887     4.2450    -1.5902 O.2     
  12 N12           -0.0894     4.2224     0.2790 N.am    
  13 C13           -0.0839     5.6194     0.3437 C.ar    
  14 Cl14          -2.0876     2.3943    -3.1427 Cl      
  15 C15            1.0200     7.6670     0.9347 C.ar    
  16 C16            1.0145     6.2868     0.8708 C.ar    
  17 C17           -1.1735     6.3411    -0.1239 C.ar    
  18 C18           -1.1640     7.7255    -0.0584 C.ar    
  19 C19           -0.0657     8.3869     0.4742 C.ar    
  20 O20           -2.2289     8.4351    -0.5157 O.3     
  21 C21           -2.1513     9.7914    -0.4875 C.ar    
  22 C22           -1.5405    11.8585    -1.5367 C.ar    
  23 C23           -1.6183    10.4797    -1.5680 C.ar    
  24 C24           -2.6102    10.4909     0.6195 C.ar    
  25 C25           -2.5302    11.8697     0.6457 C.ar    
  26 C26           -1.9937    12.5528    -0.4301 C.ar    
  27 H27            0.5590     1.8779     0.9136 H       
  28 H28           -0.4040    -1.7045    -1.1873 H       
  29 H29           -1.6248    -0.4028    -2.8797 H       
  30 H30            0.3362     3.7028     0.9788 H       
  31 H31            1.8747     8.1841     1.3451 H       
  32 H32            1.8646     5.7265     1.2312 H       
  33 H33           -2.0269     5.8248    -0.5382 H       
  34 H34           -0.0587     9.4656     0.5261 H       
  35 H35           -1.1258    12.3947    -2.3774 H       
  36 H36           -1.2642     9.9379    -2.4325 H       
  37 H37           -3.0299     9.9578     1.4598 H       
  38 H38           -2.8872    12.4146     1.5071 H       
  39 H39           -1.9314    13.6308    -0.4074 H       
@<TRIPOS>BOND
   1    1    2 ar
   2    1    6 ar
   3    1   27 1
   4    2    3 ar
   5    2    7 1
   6    3    4 ar
   7    3   28 1
   8    4    5 ar
   9    4   29 1
  10    5    6 ar
  11    5   14 1
  12    6   10 1
  13    7    8 2
  14    7    9 2
  15   10   11 2
  16   10   12 am
  17   12   13 1
  18   12   30 1
  19   13   17 ar
  20   13   16 ar
  21   15   16 ar
  22   15   19 ar
  23   15   31 1
  24   16   32 1
  25   17   18 ar
  26   17   33 1
  27   18   19 ar
  28   18   20 1
  29   19   34 1
  30   20   21 1
  31   21   24 ar
  32   21   23 ar
  33   22   23 ar
  34   22   26 ar
  35   22   35 1
  36   23   36 1
  37   24   25 ar
  38   24   37 1
  39   25   26 ar
  40   25   38 1
  41   26   39 1

#	End of record

