#	Name: ASD00170307
#	Creating user name:	WinNT
#	Creation time:	15. 06. 2019 18:31

#	Modifying user name:	WinNT
#	Modification time:	15. 06. 2019 18:31

#	Program:	/corina/corina34_cracker 3.40 0067  02.08.2006

@<TRIPOS>MOLECULE
ASD00170307
  35   37    0    0    0
SMALL
NO_CHARGES


@<TRIPOS>ATOM
   1 S1             0.1576     1.6248     0.6731 S.3     
   2 N2            -0.1178     0.3150    -0.3760 N.pl3   
   3 C3             1.1096    -0.1395    -0.7262 C.2     
   4 N4             2.1486     0.4583    -0.2379 N.2     
   5 C5             1.9247     1.4944     0.5873 C.2     
   6 N6             2.8188     2.2465     1.1973 N.2     
   7 C7            -1.3529    -0.1881    -0.7901 C.ar    
   8 C8             1.2584    -1.2899    -1.6429 C.ar    
   9 C9             4.2478     1.9868     1.0056 C.3     
  10 C10           -2.2259     0.6165    -1.5120 C.ar    
  11 C11           -3.4466     0.1155    -1.9199 C.ar    
  12 C12           -3.8003    -1.1850    -1.6108 C.ar    
  13 C13           -2.9339    -1.9887    -0.8920 C.ar    
  14 C14           -1.7094    -1.4966    -0.4862 C.ar    
  15 C15            0.2894    -1.5410    -2.6155 C.ar    
  16 C16            0.4345    -2.6158    -3.4681 C.ar    
  17 C17            1.5376    -3.4441    -3.3605 C.ar    
  18 C18            2.5015    -3.2010    -2.3982 C.ar    
  19 C19            2.3713    -2.1262    -1.5432 C.ar    
  20 C20           -4.3944     0.9875    -2.7025 C.3     
  21 H21            4.4816     0.9761     1.3401 H       
  22 H22            4.4967     2.0865    -0.0510 H       
  23 H23            4.8285     2.7047     1.5849 H       
  24 H24           -1.9504     1.6324    -1.7535 H       
  25 H25           -4.7555    -1.5741    -1.9311 H       
  26 H26           -3.2137    -3.0038    -0.6517 H       
  27 H27           -1.0334    -2.1247     0.0751 H       
  28 H28           -0.5722    -0.8954    -2.7003 H       
  29 H29           -0.3147    -2.8114    -4.2210 H       
  30 H30            1.6465    -4.2842    -4.0304 H       
  31 H31            3.3598    -3.8517    -2.3190 H       
  32 H32            3.1246    -1.9373    -0.7927 H       
  33 H33           -4.1967     0.8737    -3.7684 H       
  34 H34           -5.4212     0.6903    -2.4896 H       
  35 H35           -4.2507     2.0292    -2.4155 H       
@<TRIPOS>BOND
   1    1    2 1
   2    1    5 1
   3    2    3 1
   4    2    7 1
   5    3    4 2
   6    3    8 1
   7    4    5 1
   8    5    6 2
   9    6    9 1
  10    7   10 ar
  11    7   14 ar
  12    8   15 ar
  13    8   19 ar
  14    9   21 1
  15    9   22 1
  16    9   23 1
  17   10   11 ar
  18   10   24 1
  19   11   12 ar
  20   11   20 1
  21   12   13 ar
  22   12   25 1
  23   13   14 ar
  24   13   26 1
  25   14   27 1
  26   15   16 ar
  27   15   28 1
  28   16   17 ar
  29   16   29 1
  30   17   18 ar
  31   17   30 1
  32   18   19 ar
  33   18   31 1
  34   19   32 1
  35   20   33 1
  36   20   34 1
  37   20   35 1

#	End of record

