#	Name: ASD01840389
#	Creating user name:	WinNT
#	Creation time:	15. 06. 2019 19:37

#	Modifying user name:	WinNT
#	Modification time:	15. 06. 2019 19:37

#	Program:	/corina/corina34_cracker 3.40 0067  02.08.2006

@<TRIPOS>MOLECULE
ASD01840389
  42   43    0    0    0
SMALL
NO_CHARGES


@<TRIPOS>ATOM
   1 C1             0.2610     1.7549    -0.9980 C.ar    
   2 C2             0.3840     0.5320    -1.6193 C.ar    
   3 N3             1.4992    -0.1678    -1.4965 N.ar    
   4 N4             2.5001     0.2427    -0.8112 N.ar    
   5 C5             1.3549     2.2266    -0.2363 C.ar    
   6 C6             1.5104     3.4570     0.5172 C.2     
   7 C7             2.4929     1.4123    -0.1669 C.ar    
   8 S8             3.7251     2.1827     0.8223 S.3     
   9 C9             2.7119     3.5785     1.1344 C.2     
  10 C10           -1.0000     2.5692    -1.1311 C.3     
  11 C11           -0.7564    -0.0106    -2.4416 C.3     
  12 N12            0.5177     4.4241     0.5986 N.pl3   
  13 C13            3.1098     4.7235     1.9521 C.2     
  14 O14            2.3396     5.6522     2.1150 O.2     
  15 N15            4.3293     4.7508     2.5253 N.am    
  16 C16            4.7281     5.8981     3.3445 C.3     
  17 C17            6.1473     5.6790     3.8725 C.3     
  18 O18            7.0651     5.6592     2.7774 O.3     
  19 C19            8.4264     5.4594     3.1635 C.3     
  20 C20            9.3146     5.4560     1.9177 C.3     
  21 O21            9.2810     6.7466     1.3052 O.3     
  22 C22           10.0820     6.8516     0.1265 C.3     
  23 H23           -1.6441     2.3847    -0.2714 H       
  24 H24           -0.7458     3.6283    -1.1740 H       
  25 H25           -1.5222     2.2837    -2.0443 H       
  26 H26           -0.6496     0.3211    -3.4744 H       
  27 H27           -0.7434    -1.0999    -2.4066 H       
  28 H28           -1.7010     0.3547    -2.0385 H       
  29 H29           -0.4030     4.1919     0.4002 H       
  30 H30            0.7448     5.3320     0.8537 H       
  31 H31            4.9429     4.0109     2.3955 H       
  32 H32            4.7015     6.8038     2.7387 H       
  33 H33            4.0402     6.0019     4.1837 H       
  34 H34            6.4108     6.4888     4.5529 H       
  35 H35            6.1947     4.7283     4.4035 H       
  36 H36            8.7372     6.2646     3.8291 H       
  37 H37            8.5211     4.5041     3.6798 H       
  38 H38           10.3389     5.2155     2.2024 H       
  39 H39            8.9487     4.7096     1.2126 H       
  40 H40            9.7320     6.1342    -0.6157 H       
  41 H41           10.0027     7.8607    -0.2780 H       
  42 H42           11.1222     6.6401     0.3741 H       
@<TRIPOS>BOND
   1    1    2 ar
   2    1    5 ar
   3    1   10 1
   4    2   11 1
   5    2    3 ar
   6    3    4 ar
   7    4    7 ar
   8    5    7 ar
   9    5    6 1
  10    6    9 2
  11    6   12 1
  12    7    8 1
  13    8    9 1
  14    9   13 1
  15   10   23 1
  16   10   24 1
  17   10   25 1
  18   11   26 1
  19   11   27 1
  20   11   28 1
  21   12   29 1
  22   12   30 1
  23   13   14 2
  24   13   15 am
  25   15   16 1
  26   15   31 1
  27   16   17 1
  28   16   32 1
  29   16   33 1
  30   17   18 1
  31   17   34 1
  32   17   35 1
  33   18   19 1
  34   19   20 1
  35   19   36 1
  36   19   37 1
  37   20   21 1
  38   20   38 1
  39   20   39 1
  40   21   22 1
  41   22   40 1
  42   22   41 1
  43   22   42 1

#	End of record

