#	Name: ASD01148480
#	Creating user name:	WinNT
#	Creation time:	15. 06. 2019 19:02

#	Modifying user name:	WinNT
#	Modification time:	15. 06. 2019 19:02

#	Program:	/corina/corina34_cracker 3.40 0067  02.08.2006

@<TRIPOS>MOLECULE
ASD01148480
  58   61    0    0    0
SMALL
NO_CHARGES


@<TRIPOS>ATOM
   1 C1             0.3639     1.8416     0.0684 C.ar    
   2 C2             0.4623     0.4636    -0.0068 C.ar    
   3 C3            -0.6830    -0.3075    -0.0943 C.ar    
   4 C4            -1.9249     0.2991    -0.1066 C.ar    
   5 C5            -2.0227     1.6760    -0.0314 C.ar    
   6 C6            -0.8788     2.4467     0.0618 C.ar    
   7 C7            -3.3770     2.3368    -0.0454 C.3     
   8 O8            -4.3695     1.4928     0.5726 O.3     
   9 C9            -3.3977     3.5769     0.8799 C.3     
  10 C10           -3.9249     3.0070     2.1831 C.2     
  11 N11           -4.4451     1.8513     1.9382 N.2     
  12 C12           -3.8546     3.6614     3.5043 C.ar    
  13 C13           -4.3819     3.0223     4.6296 C.ar    
  14 C14           -3.2558     4.9172     3.6309 C.ar    
  15 C15           -3.1904     5.5275     4.8633 C.ar    
  16 C16           -3.7223     4.8909     5.9870 C.ar    
  17 C17           -4.3164     3.6327     5.8615 C.ar    
  18 C18           -3.6511     5.5457     7.3101 C.2     
  19 O19           -4.2101     5.0456     8.2667 O.2     
  20 N20           -2.9664     6.6974     7.4561 N.am    
  21 C21           -4.8906     2.9462     7.0739 C.3     
  22 C22           -3.7865     2.7098    -1.4716 C.3     
  23 F23           -3.8258     1.5563    -2.2623 F       
  24 F24           -5.0523     3.3054    -1.4526 F       
  25 F25           -2.8561     3.6087    -2.0040 F       
  26 Cl26           2.0225    -0.2976     0.0082 Cl      
  27 C27           -2.8958     7.3465     8.7675 C.3     
  28 C28           -2.0776     8.6075     8.6606 C.ar    
  29 N29           -0.7644     8.5426     8.7595 N.ar    
  30 C30           -0.0082     9.6196     8.6721 C.ar    
  31 C31           -0.5724    10.8650     8.4723 C.ar    
  32 C32           -1.9506    10.9729     8.3633 C.ar    
  33 C33           -2.7121     9.8181     8.4542 C.ar    
  34 C34            1.6110     2.6822     0.1637 C.3     
  35 F35            1.2581     4.0344     0.2277 F       
  36 F36            2.3232     2.3310     1.3155 F       
  37 F37            2.4094     2.4615    -0.9637 F       
  38 C38           -0.5766    -1.8085    -0.1766 C.3     
  39 F39           -1.8585    -2.3632    -0.2568 F       
  40 F40            0.1566    -2.1622    -1.3144 F       
  41 F41            0.0708    -2.2934     0.9648 F       
  42 H42           -2.8191    -0.3027    -0.1752 H       
  43 H43           -0.9557     3.5223     0.1204 H       
  44 H44           -2.3929     3.9783     1.0115 H       
  45 H45           -4.0722     4.3393     0.4900 H       
  46 H46           -4.8412     2.0497     4.5326 H       
  47 H47           -2.8439     5.4092     2.7622 H       
  48 H48           -2.7275     6.4983     4.9613 H       
  49 H49           -2.5203     7.0965     6.6928 H       
  50 H50           -5.8978     3.3191     7.2597 H       
  51 H51           -4.9277     1.8710     6.8992 H       
  52 H52           -4.2615     3.1520     7.9400 H       
  53 H53           -3.9023     7.5939     9.1051 H       
  54 H54           -2.4287     6.6699     9.4831 H       
  55 H55            1.0644     9.5271     8.7580 H       
  56 H56            0.0521    11.7434     8.4023 H       
  57 H57           -2.4194    11.9333     8.2073 H       
  58 H58           -3.7881     9.8647     8.3735 H       
@<TRIPOS>BOND
   1    1    2 ar
   2    1   34 1
   3    1    6 ar
   4    2    3 ar
   5    2   26 1
   6    3    4 ar
   7    3   38 1
   8    4    5 ar
   9    4   42 1
  10    5    6 ar
  11    5    7 1
  12    6   43 1
  13    7    8 1
  14    7    9 1
  15    7   22 1
  16    8   11 1
  17    9   10 1
  18    9   44 1
  19    9   45 1
  20   10   11 2
  21   10   12 1
  22   12   13 ar
  23   12   14 ar
  24   13   17 ar
  25   13   46 1
  26   14   15 ar
  27   14   47 1
  28   15   16 ar
  29   15   48 1
  30   16   17 ar
  31   16   18 1
  32   17   21 1
  33   18   19 2
  34   18   20 am
  35   20   27 1
  36   20   49 1
  37   21   50 1
  38   21   51 1
  39   21   52 1
  40   22   23 1
  41   22   24 1
  42   22   25 1
  43   27   28 1
  44   27   53 1
  45   27   54 1
  46   28   29 ar
  47   28   33 ar
  48   29   30 ar
  49   30   31 ar
  50   30   55 1
  51   31   32 ar
  52   31   56 1
  53   32   33 ar
  54   32   57 1
  55   33   58 1
  56   34   35 1
  57   34   36 1
  58   34   37 1
  59   38   39 1
  60   38   40 1
  61   38   41 1

#	End of record

