#	Name: ASD01814312
#	Creating user name:	WinNT
#	Creation time:	15. 06. 2019 19:32

#	Modifying user name:	WinNT
#	Modification time:	15. 06. 2019 19:32

#	Program:	/corina/corina34_cracker 3.40 0067  02.08.2006

@<TRIPOS>MOLECULE
ASD01814312
  59   64    0    0    0
SMALL
NO_CHARGES


@<TRIPOS>ATOM
   1 C1             0.0784     1.4518     0.4293 C.ar    
   2 C2             0.0720     0.0607     0.4255 C.ar    
   3 C3             1.2277    -0.6459     0.2735 C.ar    
   4 C4             2.4449     0.0349     0.1182 C.ar    
   5 C5             2.4476     1.4512     0.1226 C.ar    
   6 C6             1.2439     2.1454     0.2807 C.ar    
   7 C7             3.6567    -0.6693    -0.0415 C.ar    
   8 C8             4.8328    -0.0147    -0.1921 C.ar    
   9 C9             4.8907     1.3876    -0.1949 C.ar    
  10 C10            3.7189     2.1505    -0.0397 C.ar    
  11 C11            6.1600     2.1079    -0.3584 C.2     
  12 N12            6.1152     3.4605    -0.3489 N.am    
  13 C13            4.9341     4.1091    -0.1928 C.2     
  14 N14            3.7981     3.4917    -0.0469 N.2     
  15 C15            3.6424    -2.1763    -0.0442 C.3     
  16 C16            3.3865    -2.6737    -1.4435 C.ar    
  17 C17            4.4505    -2.7891    -2.3364 C.ar    
  18 C18            4.2537    -3.2350    -3.6071 C.ar    
  19 C19            2.9596    -3.5856    -4.0284 C.ar    
  20 C20            1.8778    -3.4687    -3.1204 C.ar    
  21 C21            2.1208    -3.0089    -1.8147 C.ar    
  22 O22            7.2125     1.5111    -0.4967 O.2     
  23 C23            2.7173    -4.0493    -5.3327 C.ar    
  24 C24            1.4507    -4.3792    -5.7056 C.ar    
  25 C25            0.3868    -4.2644    -4.8126 C.ar    
  26 C26            0.5837    -3.8194    -3.5416 C.ar    
  27 C27            7.3516     4.2299    -0.5080 C.3     
  28 C28            7.5681     5.1082     0.7260 C.3     
  29 C29            8.8594     5.9118     0.5599 C.3     
  30 C30            8.7530     6.7968    -0.6837 C.3     
  31 C31            8.5366     5.9185    -1.9176 C.3     
  32 C32            7.2452     5.1149    -1.7515 C.3     
  33 O33            7.6674     4.2817     1.8875 O.3     
  34 H34           -0.8509     1.9893     0.5469 H       
  35 H35           -0.8626    -0.4673     0.5450 H       
  36 H36            1.2067    -1.7257     0.2729 H       
  37 H37            1.2369     3.2254     0.2849 H       
  38 H38            5.7435    -0.5827    -0.3119 H       
  39 H39            4.9368     5.1891    -0.1895 H       
  40 H40            4.6058    -2.5493     0.3035 H       
  41 H41            2.8539    -2.5333     0.6183 H       
  42 H42            5.4460    -2.5203    -2.0151 H       
  43 H43            5.0876    -3.3186    -4.2882 H       
  44 H44            1.3061    -2.9148    -1.1120 H       
  45 H45            3.5319    -4.1430    -6.0356 H       
  46 H46            1.2672    -4.7350    -6.7087 H       
  47 H47           -0.6088    -4.5325    -5.1340 H       
  48 H48           -0.2502    -3.7355    -2.8605 H       
  49 H49            8.1932     3.5463    -0.6194 H       
  50 H50            6.7265     5.7919     0.8375 H       
  51 H51            9.0136     6.5375     1.4390 H       
  52 H52            9.7010     5.2281     0.4484 H       
  53 H53            7.9114     7.4804    -0.5722 H       
  54 H54            9.6730     7.3692    -0.8020 H       
  55 H55            8.4608     6.5489    -2.8036 H       
  56 H56            9.3781     5.2348    -2.0291 H       
  57 H57            7.0910     4.4892    -2.6306 H       
  58 H58            6.4036     5.7985    -1.6400 H       
  59 H59            7.8056     4.7727     2.7090 H       
@<TRIPOS>BOND
   1    1    2 ar
   2    1    6 ar
   3    1   34 1
   4    2    3 ar
   5    2   35 1
   6    3    4 ar
   7    3   36 1
   8    4    5 ar
   9    4    7 ar
  10    5    6 ar
  11    5   10 ar
  12    6   37 1
  13    7    8 ar
  14    7   15 1
  15    8    9 ar
  16    8   38 1
  17    9   10 ar
  18    9   11 1
  19   10   14 1
  20   11   12 am
  21   11   22 2
  22   12   13 1
  23   12   27 1
  24   13   14 2
  25   13   39 1
  26   15   16 1
  27   15   40 1
  28   15   41 1
  29   16   17 ar
  30   16   21 ar
  31   17   18 ar
  32   17   42 1
  33   18   19 ar
  34   18   43 1
  35   19   20 ar
  36   19   23 ar
  37   20   21 ar
  38   20   26 ar
  39   21   44 1
  40   23   24 ar
  41   23   45 1
  42   24   25 ar
  43   24   46 1
  44   25   26 ar
  45   25   47 1
  46   26   48 1
  47   27   28 1
  48   27   32 1
  49   27   49 1
  50   28   29 1
  51   28   33 1
  52   28   50 1
  53   29   30 1
  54   29   51 1
  55   29   52 1
  56   30   31 1
  57   30   53 1
  58   30   54 1
  59   31   32 1
  60   31   55 1
  61   31   56 1
  62   32   57 1
  63   32   58 1
  64   33   59 1

#	End of record

