#	Name: ASD02198534
#	Creating user name:	WinNT
#	Creation time:	15. 06. 2019 20:19

#	Modifying user name:	WinNT
#	Modification time:	15. 06. 2019 20:19

#	Program:	/corina/corina34_cracker 3.40 0067  02.08.2006

@<TRIPOS>MOLECULE
ASD02198534
  44   47    0    0    0
SMALL
NO_CHARGES


@<TRIPOS>ATOM
   1 C1            -0.0158     1.3527    -0.0404 C.2     
   2 C2             0.0026    -0.0039    -0.0455 C.2     
   3 N3             1.1724    -0.6814    -0.0123 N.pl3   
   4 N4             2.3179    -0.1072     0.0248 N.2     
   5 C5             2.4432     1.2023     0.0337 C.2     
   6 C6             1.2265     2.0303     0.0002 C.2     
   7 C7             1.1305    -2.0796    -0.0185 C.ar    
   8 C8            -0.1245    -4.1203     0.0883 C.ar    
   9 C9             1.0474    -4.8453    -0.0308 C.ar    
  10 C10            2.2609    -4.1912    -0.1381 C.ar    
  11 C11            2.3060    -2.8107    -0.1322 C.ar    
  12 C12            3.7795     1.8299     0.0769 C.2     
  13 N13            4.5477     2.1792    -0.9981 N.pl3   
  14 N14            5.7337     2.7419    -0.5101 N.2     
  15 C15            5.6943     2.7377     0.7985 C.2     
  16 C16            4.4837     2.1790     1.2084 C.2     
  17 C17            4.2097     2.0052    -2.3462 C.ar    
  18 C18            3.4717     0.8971    -2.7410 C.ar    
  19 O19            1.2864     3.2507     0.0063 O.2     
  20 C20            4.6070     2.9433    -3.2898 C.ar    
  21 C21            4.2722     2.7688    -4.6183 C.ar    
  22 C22            3.5421     1.6613    -5.0092 C.ar    
  23 C23            3.1401     0.7283    -4.0710 C.ar    
  24 C24           -0.0866    -2.7401     0.0948 C.ar    
  25 F25           -1.2295    -6.2195     0.1686 F       
  26 F26           -2.0576    -4.4927     1.4142 F       
  27 C27           -1.4447    -4.8376     0.2049 C.3     
  28 F28           -2.2727    -4.4665    -0.8600 F       
  29 C29            4.0311     1.9846     2.6326 C.3     
  30 H30           -0.9476     1.8978    -0.0707 H       
  31 H31           -0.9289    -0.5496    -0.0760 H       
  32 H32            1.0146    -5.9248    -0.0398 H       
  33 H33            3.1741    -4.7603    -0.2309 H       
  34 H34            3.2541    -2.3004    -0.2164 H       
  35 H35            6.4695     3.1088     1.4526 H       
  36 H36            3.1577     0.1679    -2.0088 H       
  37 H37            5.1770     3.8086    -2.9851 H       
  38 H38            4.5806     3.4982    -5.3526 H       
  39 H39            3.2812     1.5273    -6.0486 H       
  40 H40            2.5702    -0.1357    -4.3794 H       
  41 H41           -1.0020    -2.1746     0.1882 H       
  42 H42            3.4888     2.8696     2.9655 H       
  43 H43            3.3771     1.1145     2.6905 H       
  44 H44            4.9001     1.8291     3.2720 H       
@<TRIPOS>BOND
   1    1    2 2
   2    1    6 1
   3    1   30 1
   4    2    3 1
   5    2   31 1
   6    3    4 1
   7    3    7 1
   8    4    5 2
   9    5    6 1
  10    5   12 1
  11    6   19 2
  12    7   24 ar
  13    7   11 ar
  14    8    9 ar
  15    8   27 1
  16    8   24 ar
  17    9   10 ar
  18    9   32 1
  19   10   11 ar
  20   10   33 1
  21   11   34 1
  22   12   13 1
  23   12   16 2
  24   13   14 1
  25   13   17 1
  26   14   15 2
  27   15   16 1
  28   15   35 1
  29   16   29 1
  30   17   20 ar
  31   17   18 ar
  32   18   23 ar
  33   18   36 1
  34   20   21 ar
  35   20   37 1
  36   21   22 ar
  37   21   38 1
  38   22   23 ar
  39   22   39 1
  40   23   40 1
  41   24   41 1
  42   25   27 1
  43   26   27 1
  44   27   28 1
  45   29   42 1
  46   29   43 1
  47   29   44 1

#	End of record

