#	Name: ASD02030017
#	Creating user name:	WinNT
#	Creation time:	15. 06. 2019 20:14

#	Modifying user name:	WinNT
#	Modification time:	15. 06. 2019 20:14

#	Program:	/corina/corina34_cracker 3.40 0067  02.08.2006

@<TRIPOS>MOLECULE
ASD02030017
  52   53    0    0    0
SMALL
NO_CHARGES


@<TRIPOS>ATOM
   1 C1            -3.0039    -5.5215    -3.2084 C.ar    
   2 C2            -4.3723    -5.7005    -3.0976 C.ar    
   3 C3            -5.1443    -4.7472    -2.4580 C.ar    
   4 C4            -4.5495    -3.6169    -1.9301 C.ar    
   5 C5            -3.1830    -3.4379    -2.0411 C.ar    
   6 C6            -2.4094    -4.3922    -2.6743 C.ar    
   7 Cl7           -2.0338    -6.7168    -4.0107 Cl      
   8 C8            -5.3908    -2.5787    -1.2334 C.3     
   9 C9            -5.4843    -2.9138     0.2565 C.3     
  10 N10           -6.3044    -1.9018     0.9356 N.3     
  11 C11           -6.6142    -2.3121     2.3117 C.3     
  12 C12           -7.7104    -3.3792     2.2911 C.3     
  13 C13           -7.9514    -3.8902     3.7130 C.3     
  14 O14           -8.8904    -4.9669     3.6795 O.3     
  15 C15           -9.2170    -5.5386     4.8695 C.ar    
  16 C16          -10.1224    -6.5886     4.9087 C.ar    
  17 C17          -10.4543    -7.1700     6.1166 C.ar    
  18 C18           -9.8813    -6.7031     7.2922 C.ar    
  19 C19           -8.9749    -5.6519     7.2520 C.ar    
  20 C20           -8.6401    -5.0751     6.0426 C.ar    
  21 N21          -10.2173    -7.2914     8.5166 N.am    
  22 S22          -11.2117    -6.4933     9.5734 S.o2    
  23 C23          -12.7882    -6.3463     8.6883 C.3     
  24 O24          -11.3390    -7.3827    10.6744 O.2     
  25 O25          -10.6061    -5.2172     9.7286 O.2     
  26 O26           -8.9175    -2.8122     1.7778 O.3     
  27 Cl27          -5.1190    -7.1202    -3.7614 Cl      
  28 C28           -5.6457    -0.5889     0.9133 C.3     
  29 H29           -6.2118    -4.8860    -2.3715 H       
  30 H30           -2.7192    -2.5541    -1.6285 H       
  31 H31           -1.3421    -4.2518    -2.7606 H       
  32 H32           -4.9330    -1.5973    -1.3571 H       
  33 H33           -6.3907    -2.5704    -1.6674 H       
  34 H34           -5.9421    -3.8952     0.3801 H       
  35 H35           -4.4844    -2.9221     0.6904 H       
  36 H36           -5.7184    -2.7204     2.7795 H       
  37 H37           -6.9589    -1.4479     2.8795 H       
  38 H38           -7.3990    -4.2078     1.6551 H       
  39 H39           -7.0108    -4.2415     4.1371 H       
  40 H40           -8.3475    -3.0817     4.3274 H       
  41 H41          -10.5683    -6.9513     3.9943 H       
  42 H42          -11.1596    -7.9873     6.1470 H       
  43 H43           -8.5287    -5.2882     8.1658 H       
  44 H44           -7.9349    -4.2577     6.0111 H       
  45 H45           -9.8679    -8.1666     8.7464 H       
  46 H46          -13.1184    -7.3344     8.3677 H       
  47 H47          -13.5368    -5.9099     9.3495 H       
  48 H48          -12.6568    -5.7064     7.8158 H       
  49 H49           -9.2536    -2.0678     2.2954 H       
  50 H50           -5.4588    -0.2937    -0.1192 H       
  51 H51           -6.2901     0.1490     1.3912 H       
  52 H52           -4.6996    -0.6479     1.4513 H       
@<TRIPOS>BOND
   1    1    2 ar
   2    1    7 1
   3    1    6 ar
   4    2    3 ar
   5    2   27 1
   6    3    4 ar
   7    3   29 1
   8    4    5 ar
   9    4    8 1
  10    5    6 ar
  11    5   30 1
  12    6   31 1
  13    8    9 1
  14    8   32 1
  15    8   33 1
  16    9   10 1
  17    9   34 1
  18    9   35 1
  19   10   11 1
  20   10   28 1
  21   11   12 1
  22   11   36 1
  23   11   37 1
  24   12   13 1
  25   12   26 1
  26   12   38 1
  27   13   14 1
  28   13   39 1
  29   13   40 1
  30   14   15 1
  31   15   16 ar
  32   15   20 ar
  33   16   17 ar
  34   16   41 1
  35   17   18 ar
  36   17   42 1
  37   18   19 ar
  38   18   21 1
  39   19   20 ar
  40   19   43 1
  41   20   44 1
  42   21   22 am
  43   21   45 1
  44   22   23 1
  45   22   24 2
  46   22   25 2
  47   23   46 1
  48   23   47 1
  49   23   48 1
  50   26   49 1
  51   28   50 1
  52   28   51 1
  53   28   52 1

#	End of record

