#	Name: ASD01915099
#	Creating user name:	WinNT
#	Creation time:	15. 06. 2019 20:04

#	Modifying user name:	WinNT
#	Modification time:	15. 06. 2019 20:04

#	Program:	/corina/corina34_cracker 3.40 0067  02.08.2006

@<TRIPOS>MOLECULE
ASD01915099
  44   47    0    0    0
SMALL
NO_CHARGES


@<TRIPOS>ATOM
   1 C1             0.0139     2.0895    -0.0308 C.ar    
   2 C2            -0.2140     0.7136     0.0427 C.ar    
   3 N3            -1.4623     0.2414     0.0750 N.ar    
   4 C4            -2.5096     1.0319     0.0399 C.ar    
   5 C5            -2.3639     2.4088    -0.0332 C.ar    
   6 C6            -1.0996     2.9548    -0.0640 C.ar    
   7 C7             1.4383     2.4082    -0.0560 C.2     
   8 C8             2.2405     1.3474    -0.0053 C.2     
   9 S9             1.3228    -0.1432     0.0784 S.3     
  10 C10            1.9486     3.7975    -0.1320 C.ar    
  11 C11            1.7180     4.6860     0.9177 C.ar    
  12 C12            2.1958     5.9782     0.8421 C.ar    
  13 C13            2.9027     6.3933    -0.2736 C.ar    
  14 C14            3.1345     5.5153    -1.3187 C.ar    
  15 C15            2.6661     4.2192    -1.2508 C.ar    
  16 Cl16           3.5000     8.0209    -0.3628 Cl      
  17 S17            4.0004     1.4311    -0.0208 S.o2    
  18 C18            4.5320     1.5443     1.6553 C.ar    
  19 O19            4.4576     0.1749    -0.5027 O.2     
  20 O20            4.3379     2.6681    -0.6332 O.2     
  21 C21            4.7975     0.3933     2.3742 C.ar    
  22 C22            5.2139     0.4786     3.6883 C.ar    
  23 C23            5.3663     1.7222     4.2874 C.ar    
  24 C24            5.0992     2.8762     3.5626 C.ar    
  25 C25            4.6882     2.7842     2.2473 C.ar    
  26 N26            5.7875     1.8121     5.6187 N.am    
  27 O27            7.0575     0.0046     5.4130 O.2     
  28 C28            6.6818     0.9281     6.1037 C.2     
  29 C29            7.2149     1.0870     7.5043 C.3     
  30 H30           -3.5005     0.6031     0.0679 H       
  31 H31           -3.2341     3.0479    -0.0617 H       
  32 H32           -0.9635     4.0247    -0.1208 H       
  33 H33            1.1662     4.3633     1.7882 H       
  34 H34            2.0178     6.6671     1.6545 H       
  35 H35            3.6864     5.8442    -2.1867 H       
  36 H36            2.8477     3.5349    -2.0664 H       
  37 H37            4.6788    -0.5735     1.9077 H       
  38 H38            5.4204    -0.4207     4.2494 H       
  39 H39            5.2168     3.8448     4.0257 H       
  40 H40            4.4807     3.6814     1.6829 H       
  41 H41            5.4359     2.5106     6.1925 H       
  42 H42            6.5751     0.5446     8.2003 H       
  43 H43            8.2278     0.6874     7.5550 H       
  44 H44            7.2275     2.1439     7.7705 H       
@<TRIPOS>BOND
   1    1    2 ar
   2    1    7 1
   3    1    6 ar
   4    2    3 ar
   5    2    9 1
   6    3    4 ar
   7    4    5 ar
   8    4   30 1
   9    5    6 ar
  10    5   31 1
  11    6   32 1
  12    7    8 2
  13    7   10 1
  14    8    9 1
  15    8   17 1
  16   10   11 ar
  17   10   15 ar
  18   11   12 ar
  19   11   33 1
  20   12   13 ar
  21   12   34 1
  22   13   14 ar
  23   13   16 1
  24   14   15 ar
  25   14   35 1
  26   15   36 1
  27   17   18 1
  28   17   19 2
  29   17   20 2
  30   18   21 ar
  31   18   25 ar
  32   21   22 ar
  33   21   37 1
  34   22   23 ar
  35   22   38 1
  36   23   24 ar
  37   23   26 1
  38   24   25 ar
  39   24   39 1
  40   25   40 1
  41   26   28 am
  42   26   41 1
  43   27   28 2
  44   28   29 1
  45   29   42 1
  46   29   43 1
  47   29   44 1

#	End of record

