#	Name: ASD03091685
#	Creating user name:	WinNT
#	Creation time:	15. 06. 2019 20:31

#	Modifying user name:	WinNT
#	Modification time:	15. 06. 2019 20:31

#	Program:	/corina/corina34_cracker 3.40 0067  02.08.2006

@<TRIPOS>MOLECULE
ASD03091685
  44   45    0    0    0
SMALL
NO_CHARGES


@<TRIPOS>ATOM
   1 Cl1            0.0000     0.0000     0.0000 Cl      
   2 H2             0.0000     1.3700     0.0000 H       
   3 Cl3            5.0000     6.3700     5.0000 Cl      
   4 H4             5.0000     7.7400     5.0000 H       
   5 C5            19.5231    16.7131    11.5734 C.ar    
   6 C6            19.5421    15.3134    11.5657 C.ar    
   7 C7            20.7630    14.6307    11.5508 C.ar    
   8 C8            21.9502    15.3240    11.5441 C.ar    
   9 C9            21.9503    16.7114    11.5515 C.ar    
  10 C10           20.7629    17.4098    11.5653 C.ar    
  11 S11           17.8913    14.7024    11.5781 S.3     
  12 C12           17.2365    16.3305    11.5931 C.2     
  13 C13           18.2221    17.2351    11.5943 C.2     
  14 C14           15.8046    16.6550    11.6078 C.2     
  15 O15           15.4442    17.8171    11.6171 O.2     
  16 N16           14.8894    15.6656    11.6110 N.am    
  17 N17           11.9515    15.2468    13.4051 N.3     
  18 C18           13.0011    16.2180    13.0684 C.3     
  19 C19           13.4607    15.9894    11.6256 C.3     
  20 C20           12.6630    14.8220    11.0311 C.3     
  21 C21           11.1704    15.1713    11.0858 C.3     
  22 C22           10.7741    15.4219    12.5435 C.3     
  23 C23           12.4607    13.8707    13.3266 C.3     
  24 C24           12.9055    13.5754    11.8914 C.3     
  25 N25           20.7766    18.8020    11.5721 N.pl3   
  26 H26           20.7730    13.5508    11.5449 H       
  27 H27           22.8867    14.7863    11.5333 H       
  28 H28           22.8878    17.2477    11.5462 H       
  29 H29           18.0282    18.2975    11.6026 H       
  30 H30           15.1767    14.7392    11.6036 H       
  31 H31           12.6066    17.2292    13.1685 H       
  32 H32           13.8465    16.0887    13.7442 H       
  33 H33           13.2823    16.8902    11.0384 H       
  34 H34           12.9691    14.6454    10.0000 H       
  35 H35           10.9837    16.0694    10.4970 H       
  36 H36           10.5864    14.3423    10.6859 H       
  37 H37           10.0000    14.7129    12.8370 H       
  38 H38           10.3951    16.4386    12.6477 H       
  39 H39           13.3096    13.7579    14.0009 H       
  40 H40           11.6727    13.1744    13.6136 H       
  41 H41           12.3285    12.7400    11.4948 H       
  42 H42           13.9666    13.3259    11.8820 H       
  43 H43           19.9415    19.2952    11.5824 H       
  44 H44           21.6214    19.2787    11.5666 H       
@<TRIPOS>BOND
   1    1    2 1
   2    3    4 1
   3    5    6 ar
   4    5   10 ar
   5    5   13 1
   6    6    7 ar
   7    6   11 1
   8    7    8 ar
   9    7   26 1
  10    8    9 ar
  11    8   27 1
  12    9   10 ar
  13    9   28 1
  14   10   25 1
  15   11   12 1
  16   12   13 2
  17   12   14 1
  18   13   29 1
  19   14   15 2
  20   14   16 am
  21   16   19 1
  22   16   30 1
  23   17   18 1
  24   17   22 1
  25   17   23 1
  26   18   19 1
  27   18   31 1
  28   18   32 1
  29   19   20 1
  30   19   33 1
  31   20   21 1
  32   20   24 1
  33   20   34 1
  34   21   22 1
  35   21   35 1
  36   21   36 1
  37   22   37 1
  38   22   38 1
  39   23   24 1
  40   23   39 1
  41   23   40 1
  42   24   41 1
  43   24   42 1
  44   25   43 1
  45   25   44 1

#	End of record

