#	Name: ASD01884200
#	Creating user name:	WinNT
#	Creation time:	15. 06. 2019 19:47

#	Modifying user name:	WinNT
#	Modification time:	15. 06. 2019 19:47

#	Program:	/corina/corina34_cracker 3.40 0067  02.08.2006

@<TRIPOS>MOLECULE
ASD01884200
  36   39    0    0    0
SMALL
NO_CHARGES


@<TRIPOS>ATOM
   1 S1            -0.0219     1.7672     0.0118 S.3     
   2 C2             0.0021    -0.0041     0.0020 C.2     
   3 N3             1.2906    -0.3577    -0.0122 N.am    
   4 C4             2.2518     0.6359    -0.0160 C.ar    
   5 C5             1.7392     1.9355    -0.0042 C.ar    
   6 C6             2.5664     3.0408    -0.0061 C.ar    
   7 C7             3.9501     2.8710    -0.0202 C.ar    
   8 C8             4.4768     1.5780    -0.0322 C.ar    
   9 C9             3.6482     0.4841    -0.0306 C.ar    
  10 O10           -0.9607    -0.7487     0.0072 O.2     
  11 C11            4.8500     4.0474    -0.0230 C.ar    
  12 C12            5.7255     6.0067     1.0639 C.ar    
  13 C13            6.5404     6.2572    -0.0305 C.ar    
  14 C14            6.5171     5.4189    -1.1245 C.ar    
  15 C15            5.6737     4.3063    -1.1346 C.ar    
  16 C16            1.6772    -1.7708    -0.0230 C.3     
  17 C17            1.7985    -2.2553    -1.4692 C.3     
  18 C18            2.3090    -3.6795    -1.6966 C.3     
  19 C19            0.8336    -3.3492    -1.9309 C.3     
  20 F20            3.1068    -3.9077    -2.8230 F       
  21 F21            2.6293    -4.4391    -0.5662 F       
  22 C22            5.6472     3.4331    -2.2692 C.1     
  23 N23            5.6262     2.7404    -3.1693 N.1     
  24 F24            5.7579     6.8365     2.1295 F       
  25 C25            4.8823     4.9079     1.0723 C.ar    
  26 F26            4.0913     4.6709     2.1416 F       
  27 H27            2.1428     4.0342     0.0029 H       
  28 H28            5.5476     1.4373    -0.0432 H       
  29 H29            4.0757    -0.5077    -0.0397 H       
  30 H30            7.1973     7.1144    -0.0253 H       
  31 H31            7.1545     5.6206    -1.9727 H       
  32 H32            2.6362    -1.8890     0.4814 H       
  33 H33            0.9194    -2.3587     0.4949 H       
  34 H34            2.0844    -1.4959    -2.1970 H       
  35 H35            0.1125    -3.7238    -1.2044 H       
  36 H36            0.4845    -3.3097    -2.9627 H       
@<TRIPOS>BOND
   1    1    2 1
   2    1    5 1
   3    2    3 am
   4    2   10 2
   5    3    4 1
   6    3   16 1
   7    4    5 ar
   8    4    9 ar
   9    5    6 ar
  10    6    7 ar
  11    6   27 1
  12    7    8 ar
  13    7   11 1
  14    8    9 ar
  15    8   28 1
  16    9   29 1
  17   11   25 ar
  18   11   15 ar
  19   12   13 ar
  20   12   24 1
  21   12   25 ar
  22   13   14 ar
  23   13   30 1
  24   14   15 ar
  25   14   31 1
  26   15   22 1
  27   16   17 1
  28   16   32 1
  29   16   33 1
  30   17   18 1
  31   17   19 1
  32   17   34 1
  33   18   19 1
  34   18   20 1
  35   18   21 1
  36   19   35 1
  37   19   36 1
  38   22   23 3
  39   25   26 1

#	End of record

