#	Name: ASD01948219
#	Creating user name:	WinNT
#	Creation time:	15. 06. 2019 20:14

#	Modifying user name:	WinNT
#	Modification time:	15. 06. 2019 20:14

#	Program:	/corina/corina34_cracker 3.40 0067  02.08.2006

@<TRIPOS>MOLECULE
ASD01948219
  40   42    0    0    0
SMALL
NO_CHARGES


@<TRIPOS>ATOM
   1 C1            -0.0125     1.3043    -0.4823 C.ar    
   2 C2             0.0506    -0.0648    -0.3270 C.ar    
   3 C3             1.2712    -0.6840    -0.0599 C.ar    
   4 N4             2.3803     0.0408     0.0466 N.ar    
   5 C5             2.3704     1.3542    -0.0940 C.ar    
   6 C6             1.1721     2.0401    -0.3645 C.ar    
   7 C7            -0.9860    -1.1579    -0.3825 C.3     
   8 N8            -0.2724    -2.4150    -0.1317 N.am    
   9 C9             1.0303    -2.1427     0.0546 C.2     
  10 C10            4.8240     0.0128    -0.0671 C.ar    
  11 C11            4.7681     1.3819     0.1536 C.ar    
  12 N12            3.5524     2.0637     0.0261 N.pl3   
  13 C13            6.0254    -0.6581     0.0598 C.ar    
  14 C14            7.1724     0.0325     0.4070 C.ar    
  15 C15            7.1215     1.3979     0.6276 C.ar    
  16 C16            5.9228     2.0750     0.5022 C.ar    
  17 F17            5.8729     3.4078     0.7175 F       
  18 Br18           8.8135    -0.8908     0.5806 Br      
  19 O19            1.8875    -2.9724     0.2844 O.2     
  20 C20            1.1646     3.5079    -0.5215 C.2     
  21 O21            2.1898     4.1416    -0.3616 O.2     
  22 N22            0.0213     4.1455    -0.8422 N.am    
  23 O23            0.0142     5.5535    -0.9929 O.3     
  24 C24           -1.2637     6.0951    -1.3332 C.3     
  25 C25           -1.1534     7.6150    -1.4697 C.3     
  26 O26           -0.3020     7.9337    -2.5721 O.3     
  27 H27           -0.9509     1.7953    -0.6937 H       
  28 H28           -1.7418    -0.9966     0.3861 H       
  29 H29           -1.4522    -1.1821    -1.3675 H       
  30 H30           -0.6746    -3.2973    -0.1047 H       
  31 H31            3.9283    -0.5286    -0.3336 H       
  32 H32            3.5384     3.0336     0.0220 H       
  33 H33            6.0687    -1.7235    -0.1119 H       
  34 H34            8.0187     1.9345     0.8989 H       
  35 H35           -0.7966     3.6399    -0.9698 H       
  36 H36           -1.5989     5.6687    -2.2787 H       
  37 H37           -1.9817     5.8517    -0.5501 H       
  38 H38           -2.1436     8.0371    -1.6414 H       
  39 H39           -0.7343     8.0325    -0.5542 H       
  40 H40           -0.1862     8.8826    -2.7182 H       
@<TRIPOS>BOND
   1    1    2 ar
   2    1    6 ar
   3    1   27 1
   4    2    3 ar
   5    2    7 1
   6    3    4 ar
   7    3    9 1
   8    4    5 ar
   9    5    6 ar
  10    5   12 1
  11    6   20 1
  12    7    8 1
  13    7   28 1
  14    7   29 1
  15    8    9 am
  16    8   30 1
  17    9   19 2
  18   10   11 ar
  19   10   13 ar
  20   10   31 1
  21   11   12 1
  22   11   16 ar
  23   12   32 1
  24   13   14 ar
  25   13   33 1
  26   14   15 ar
  27   14   18 1
  28   15   16 ar
  29   15   34 1
  30   16   17 1
  31   20   21 2
  32   20   22 am
  33   22   23 1
  34   22   35 1
  35   23   24 1
  36   24   25 1
  37   24   36 1
  38   24   37 1
  39   25   26 1
  40   25   38 1
  41   25   39 1
  42   26   40 1

#	End of record

