#	Name: ASD05430386
#	Creating user name:	WinNT
#	Creation time:	15. 06. 2019 21:00

#	Modifying user name:	WinNT
#	Modification time:	15. 06. 2019 21:00

#	Program:	/corina/corina34_cracker 3.40 0067  02.08.2006

@<TRIPOS>MOLECULE
ASD05430386
  65   69    0    0    0
SMALL
NO_CHARGES


@<TRIPOS>ATOM
   1 C1            -0.0229     1.3681     0.1754 C.ar    
   2 C2            -0.0158    -0.0184     0.3226 C.ar    
   3 C3            -1.2129    -0.7203     0.3792 C.ar    
   4 C4            -2.4135    -0.0497     0.2906 C.ar    
   5 C5            -2.4285     1.3412     0.1433 C.ar    
   6 C6            -1.2233     2.0482     0.0916 C.ar    
   7 C7            -4.8651     1.3680    -0.0475 C.2     
   8 C8            -3.7096     2.0591     0.0480 C.2     
   9 N9            -7.1680     1.5696    -0.8190 N.pl3   
  10 C10           -6.1758     2.0460     0.0376 C.2     
  11 O11            1.1509     2.0517     0.1200 O.3     
  12 C12            1.0690     3.4703    -0.0317 C.3     
  13 C13            1.5487    -1.6293     1.3655 C.2     
  14 N14            1.2030    -0.7060     0.4132 N.pl3   
  15 C15            2.7999    -2.0366     1.0779 C.2     
  16 N16            3.2113    -1.3829    -0.0185 N.2     
  17 C17            2.2636    -0.5830    -0.4261 C.2     
  18 C18            3.5995    -3.0509     1.8543 C.3     
  19 C19           -6.8926     0.3394    -1.5621 C.3     
  20 C20           -6.0768    -0.5998    -0.6780 C.3     
  21 O21           -4.8703     0.0157    -0.2322 O.3     
  22 C22           -8.4272     2.2992    -0.9338 C.3     
  23 C23           -8.7845     2.8671     0.4445 C.3     
  24 O24           -7.6868     3.6083     0.9676 O.3     
  25 N25           -6.4152     3.0081     0.8627 N.2     
  26 C26           -8.2727     3.4260    -1.9225 C.ar    
  27 C27           -9.3428     4.2577    -2.1946 C.ar    
  28 C28           -7.9889     5.4940    -3.7365 C.ar    
  29 C29           -6.9161     4.6638    -3.4589 C.ar    
  30 C30           -7.0592     3.6305    -2.5524 C.ar    
  31 F31           -7.8502     6.5044    -4.6226 F       
  32 C32           -9.2023     5.2914    -3.1011 C.ar    
  33 C33           -6.9152    -0.9941     0.5396 C.3     
  34 C34           -9.5319     1.3498    -1.4020 C.3     
  35 C35           -5.7287    -1.8592    -1.4740 C.3     
  36 O36          -10.7622     2.0683    -1.5129 O.3     
  37 H37           -1.2027    -1.7943     0.4926 H       
  38 H38           -3.3429    -0.5982     0.3346 H       
  39 H39           -1.2302     3.1222    -0.0220 H       
  40 H40           -3.7252     3.1390     0.0545 H       
  41 H41            2.0740     3.8911    -0.0618 H       
  42 H42            0.5481     3.7070    -0.9595 H       
  43 H43            0.5224     3.8947     0.8104 H       
  44 H44            0.9370    -1.9629     2.1907 H       
  45 H45            2.3141     0.0671    -1.2870 H       
  46 H46            3.4124    -4.0464     1.4517 H       
  47 H47            4.6611    -2.8184     1.7698 H       
  48 H48            3.3035    -3.0214     2.9029 H       
  49 H49           -7.8323    -0.1403    -1.8357 H       
  50 H50           -6.3251     0.5756    -2.4623 H       
  51 H51           -9.6513     3.5215     0.3522 H       
  52 H52           -9.0232     2.0476     1.1224 H       
  53 H53          -10.2892     4.0995    -1.6989 H       
  54 H54           -5.9680     4.8234    -3.9509 H       
  55 H55           -6.2225     2.9829    -2.3357 H       
  56 H56          -10.0386     5.9406    -3.3141 H       
  57 H57           -7.8227    -1.4985     0.2079 H       
  58 H58           -6.3384    -1.6653     1.1759 H       
  59 H59           -7.1816    -0.0995     1.1024 H       
  60 H60           -9.2656     0.9335    -2.3735 H       
  61 H61           -9.6469     0.5417    -0.6796 H       
  62 H62           -5.1458    -1.5839    -2.3530 H       
  63 H63           -5.1457    -2.5350    -0.8484 H       
  64 H64           -6.6468    -2.3559    -1.7880 H       
  65 H65          -11.5084     1.5276    -1.8059 H       
@<TRIPOS>BOND
   1    1    2 ar
   2    1   11 1
   3    1    6 ar
   4    2    3 ar
   5    2   14 1
   6    3    4 ar
   7    3   37 1
   8    4    5 ar
   9    4   38 1
  10    5    6 ar
  11    5    8 1
  12    6   39 1
  13    7    8 2
  14    7   21 1
  15    7   10 1
  16    8   40 1
  17    9   10 1
  18    9   22 1
  19    9   19 1
  20   10   25 2
  21   11   12 1
  22   12   41 1
  23   12   42 1
  24   12   43 1
  25   13   14 1
  26   13   15 2
  27   13   44 1
  28   14   17 1
  29   15   16 1
  30   15   18 1
  31   16   17 2
  32   17   45 1
  33   18   46 1
  34   18   47 1
  35   18   48 1
  36   19   20 1
  37   19   49 1
  38   19   50 1
  39   20   33 1
  40   20   35 1
  41   20   21 1
  42   22   23 1
  43   22   26 1
  44   22   34 1
  45   23   24 1
  46   23   51 1
  47   23   52 1
  48   24   25 1
  49   26   27 ar
  50   26   30 ar
  51   27   32 ar
  52   27   53 1
  53   28   29 ar
  54   28   31 1
  55   28   32 ar
  56   29   30 ar
  57   29   54 1
  58   30   55 1
  59   32   56 1
  60   33   57 1
  61   33   58 1
  62   33   59 1
  63   34   36 1
  64   34   60 1
  65   34   61 1
  66   35   62 1
  67   35   63 1
  68   35   64 1
  69   36   65 1

#	End of record

