#	Name: ASD01810347
#	Creating user name:	WinNT
#	Creation time:	15. 06. 2019 19:24

#	Modifying user name:	WinNT
#	Modification time:	15. 06. 2019 19:24

#	Program:	/corina/corina34_cracker 3.40 0067  02.08.2006

@<TRIPOS>MOLECULE
ASD01810347
  39   41    0    0    0
SMALL
NO_CHARGES


@<TRIPOS>ATOM
   1 C1            -0.0167     1.3839     0.0097 C.ar    
   2 C2             0.0021    -0.0041     0.0020 C.ar    
   3 C3             1.1959    -0.6912    -0.0126 C.ar    
   4 C4             2.3968     0.0128    -0.0204 C.ar    
   5 C5             2.3708     1.4183    -0.0131 C.ar    
   6 C6             1.1510     2.0946     0.0023 C.ar    
   7 N7             3.6071    -0.6437    -0.0345 N.pl3   
   8 C8             4.7816     0.0319    -0.0413 C.2     
   9 C9             4.8432     1.3796    -0.0351 C.2     
  10 C10            3.6530     2.1441    -0.0215 C.2     
  11 O11            3.6871     3.3637    -0.0164 O.2     
  12 C12            6.1819     2.0716    -0.0426 C.3     
  13 C13            3.6253    -2.1085    -0.0421 C.3     
  14 C14            3.6188    -2.6037    -1.4654 C.ar    
  15 C15            4.8137    -2.8155    -2.1279 C.ar    
  16 C16            4.8104    -3.2694    -3.4327 C.ar    
  17 C17            3.6068    -3.5127    -4.0782 C.ar    
  18 C18            2.4092    -3.2994    -3.4112 C.ar    
  19 C19            2.4179    -2.8508    -2.1046 C.ar    
  20 O20            6.2861     2.8946    -1.2062 O.3     
  21 *21            6.3167     2.9573     1.2345 Du      
  22 O22            3.6009    -3.9588    -5.3619 O.3     
  23 C23            2.3250    -4.1879    -5.9632 C.3     
  24 H24           -0.9618     1.9067     0.0170 H       
  25 H25           -0.9291    -0.5511     0.0080 H       
  26 H26            1.2002    -1.7712    -0.0178 H       
  27 H27            1.1291     3.1744     0.0080 H       
  28 H28            5.7038    -0.5301    -0.0517 H       
  29 H29            6.9765     1.3256    -0.0529 H       
  30 H30            4.5243    -2.4633     0.4619 H       
  31 H31            2.7446    -2.4855     0.4778 H       
  32 H32            5.7505    -2.6256    -1.6251 H       
  33 H33            5.7441    -3.4343    -3.9499 H       
  34 H34            1.4708    -3.4881    -3.9116 H       
  35 H35            1.4859    -2.6846    -1.5849 H       
  36 H36            7.1244     3.3715    -1.2769 H       
  37 H37            1.7826    -4.9394    -5.3895 H       
  38 H38            1.7560    -3.2582    -5.9736 H       
  39 H39            2.4631    -4.5408    -6.9852 H       
@<TRIPOS>BOND
   1    1    2 ar
   2    1    6 ar
   3    1   24 1
   4    2    3 ar
   5    2   25 1
   6    3    4 ar
   7    3   26 1
   8    4    5 ar
   9    4    7 1
  10    5    6 ar
  11    5   10 1
  12    6   27 1
  13    7    8 1
  14    7   13 1
  15    8    9 2
  16    8   28 1
  17    9   10 1
  18    9   12 1
  19   10   11 2
  20   12   21 1
  21   12   20 1
  22   12   29 1
  23   13   14 1
  24   13   30 1
  25   13   31 1
  26   14   15 ar
  27   14   19 ar
  28   15   16 ar
  29   15   32 1
  30   16   17 ar
  31   16   33 1
  32   17   22 1
  33   17   18 ar
  34   18   19 ar
  35   18   34 1
  36   19   35 1
  37   20   36 1
  38   22   23 1
  39   23   37 1
  40   23   38 1
  41   23   39 1

#	End of record

