#	Name: ASD03330388
#	Creating user name:	WinNT
#	Creation time:	15. 06. 2019 20:37

#	Modifying user name:	WinNT
#	Modification time:	15. 06. 2019 20:37

#	Program:	/corina/corina34_cracker 3.40 0067  02.08.2006

@<TRIPOS>MOLECULE
ASD03330388
  54   57    0    0    0
SMALL
NO_CHARGES


@<TRIPOS>ATOM
   1 C1            -0.0179     1.4666     0.0101 C.3     
   2 N2             0.0021    -0.0041     0.0020 N.am    
   3 C3             0.5791    -0.6826    -1.1742 C.3     
   4 C4             1.8395     0.0634    -1.5376 C.2     
   5 N5             2.1950     1.2602    -1.0064 N.pl3   
   6 C6             1.4218     1.9926    -0.0008 C.3     
   7 C7             2.8088    -0.2954    -2.4175 C.2     
   8 N8             3.7410     0.6841    -2.4213 N.2     
   9 C9             3.3779     1.6226    -1.5775 C.2     
  10 C10            4.1276     2.8665    -1.2948 C.ar    
  11 C11            5.1488     3.2788    -2.1513 C.ar    
  12 C12            2.8399    -1.5294    -3.2224 C.2     
  13 O13            1.9371    -2.3390    -3.1295 O.2     
  14 C14            3.8999    -2.9876    -4.8617 C.3     
  15 N15            3.8689    -1.7608    -4.0615 N.am    
  16 C16           -0.4915    -0.7107     1.0381 C.2     
  17 O17           -0.4659    -1.9229     1.0124 O.2     
  18 C18            5.8439     4.4400    -1.8824 C.ar    
  19 C19            5.5301     5.1948    -0.7663 C.ar    
  20 C20            4.5186     4.7912     0.0869 C.ar    
  21 C21            3.8125     3.6348    -0.1738 C.ar    
  22 C22            5.1647    -3.0033    -5.7224 C.3     
  23 C23           -1.0753     0.0056     2.2286 C.3     
  24 C24            5.2624    -4.3393    -6.4654 C.3     
  25 C25            5.1019    -1.8657    -6.7463 C.3     
  26 C26            6.3331    -1.9374    -7.6533 C.3     
  27 O27            6.3804    -3.2160    -8.2898 O.3     
  28 C28            6.4874    -4.3155    -7.3833 C.3     
  29 H29           -0.5441     1.8282    -0.8733 H       
  30 H30           -0.5271     1.8186     0.9072 H       
  31 H31            0.8171    -1.7172    -0.9273 H       
  32 H32           -0.1254    -0.6499    -2.0053 H       
  33 H33            1.4195     3.0547    -0.2457 H       
  34 H34            1.8705     1.8456     0.9816 H       
  35 H35            5.3949     2.6903    -3.0227 H       
  36 H36            3.9003    -3.8534    -4.1995 H       
  37 H37            3.0214    -3.0234    -5.5060 H       
  38 H38            4.5889    -1.1151    -4.1357 H       
  39 H39            6.6348     4.7601    -2.5445 H       
  40 H40            6.0774     6.1027    -0.5599 H       
  41 H41            4.2784     5.3848     0.9566 H       
  42 H42            3.0231     3.3208     0.4930 H       
  43 H43            6.0404    -2.8751    -5.0861 H       
  44 H44           -1.9148     0.6216     1.9063 H       
  45 H45           -1.4208    -0.7258     2.9592 H       
  46 H46           -0.3125     0.6391     2.6815 H       
  47 H47            5.3632    -5.1505    -5.7444 H       
  48 H48            4.3629    -4.4908    -7.0622 H       
  49 H49            4.1993    -1.9672    -7.3487 H       
  50 H50            5.0880    -0.9079    -6.2261 H       
  51 H51            6.2724    -1.1562    -8.4110 H       
  52 H52            7.2336    -1.7953    -7.0558 H       
  53 H53            7.3899    -4.2045    -6.7822 H       
  54 H54            6.5378    -5.2473    -7.9465 H       
@<TRIPOS>BOND
   1    1    2 1
   2    1    6 1
   3    1   29 1
   4    1   30 1
   5    2    3 1
   6    2   16 am
   7    3    4 1
   8    3   31 1
   9    3   32 1
  10    4    5 1
  11    4    7 2
  12    5    6 1
  13    5    9 1
  14    6   33 1
  15    6   34 1
  16    7    8 1
  17    7   12 1
  18    8    9 2
  19    9   10 1
  20   10   11 ar
  21   10   21 ar
  22   11   18 ar
  23   11   35 1
  24   12   13 2
  25   12   15 am
  26   14   22 1
  27   14   15 1
  28   14   36 1
  29   14   37 1
  30   15   38 1
  31   16   17 2
  32   16   23 1
  33   18   19 ar
  34   18   39 1
  35   19   20 ar
  36   19   40 1
  37   20   21 ar
  38   20   41 1
  39   21   42 1
  40   22   24 1
  41   22   25 1
  42   22   43 1
  43   23   44 1
  44   23   45 1
  45   23   46 1
  46   24   28 1
  47   24   47 1
  48   24   48 1
  49   25   26 1
  50   25   49 1
  51   25   50 1
  52   26   27 1
  53   26   51 1
  54   26   52 1
  55   27   28 1
  56   28   53 1
  57   28   54 1

#	End of record

