#	Name: ASD01720020
#	Creating user name:	WinNT
#	Creation time:	15. 06. 2019 19:23

#	Modifying user name:	WinNT
#	Modification time:	15. 06. 2019 19:23

#	Program:	/corina/corina34_cracker 3.40 0067  02.08.2006

@<TRIPOS>MOLECULE
ASD01720020
  43   45    0    0    0
SMALL
NO_CHARGES


@<TRIPOS>ATOM
   1 C1            -0.0173     1.4248     0.0099 C.3     
   2 C2             1.4181     1.9544    -0.0010 C.3     
   3 C3             1.4245     3.4933     0.1334 C.3     
   4 O4             1.6779     3.8766     1.4866 O.3     
   5 C5             2.5832     3.9454    -0.7833 C.3     
   6 O6             3.5875     4.6217    -0.0244 O.3     
   7 C7             3.1397     2.6261    -1.3632 C.3     
   8 O8             2.0408     1.6928    -1.2776 O.3     
   9 N9             3.5429     2.8126    -2.7592 N.pl3   
  10 C10            2.7850     2.5435    -3.8611 C.2     
  11 N11            3.4545     2.8261    -4.9402 N.2     
  12 C12            4.6811     3.2931    -4.6008 C.ar    
  13 C13            5.8004     3.7424    -5.3228 C.ar    
  14 N14            5.7859     3.7675    -6.7061 N.pl3   
  15 N15            6.8723     4.1427    -4.6479 N.ar    
  16 C16            6.8949     4.1225    -3.3227 C.ar    
  17 N17            5.8660     3.7079    -2.6051 N.ar    
  18 C18            4.7496     3.2955    -3.1981 C.ar    
  19 O19            8.0127     4.5413    -2.6815 O.3     
  20 P20           -1.3361    -0.8992     0.0100 P.3     
  21 O21           -2.2020    -0.5022    -1.1227 O.2     
  22 O22            0.0021    -0.0041     0.0020 O.3     
  23 O23           -1.8167    -3.8314    -2.1961 O.3     
  24 O24           -2.1257    -0.6718     1.3945 O.3     
  25 O25           -0.9428    -2.4537    -0.1344 O.3     
  26 P26           -1.7459    -3.7731    -0.5887 P.3     
  27 O27           -3.1181    -3.7302    -0.0358 O.2     
  28 O28           -0.9857    -5.0807    -0.0372 O.3     
  29 H29           -0.5275     1.7763     0.9067 H       
  30 H30           -0.5445     1.7859    -0.8732 H       
  31 H31            1.9953     1.5007     0.8047 H       
  32 H32            0.4780     3.9106    -0.2099 H       
  33 H33            1.6929     4.8331     1.6281 H       
  34 H34            2.2107     4.5884    -1.5807 H       
  35 H35            3.2755     5.4262     0.4121 H       
  36 H36            3.9826     2.2755    -0.7675 H       
  37 H37            1.7782     2.1532    -3.8407 H       
  38 H38            4.9975     3.4730    -7.1883 H       
  39 H39            6.5643     4.0795    -7.1937 H       
  40 H40            8.0183     5.4865    -2.4774 H       
  41 H41           -0.9515    -3.8615    -2.6271 H       
  42 H42           -1.6172    -0.9117     2.1813 H       
  43 H43           -1.4148    -5.9143    -0.2739 H       
@<TRIPOS>BOND
   1    1   22 1
   2    1    2 1
   3    1   29 1
   4    1   30 1
   5    2    3 1
   6    2    8 1
   7    2   31 1
   8    3    4 1
   9    3    5 1
  10    3   32 1
  11    4   33 1
  12    5    6 1
  13    5    7 1
  14    5   34 1
  15    6   35 1
  16    7    8 1
  17    7    9 1
  18    7   36 1
  19    9   10 1
  20    9   18 1
  21   10   11 2
  22   10   37 1
  23   11   12 1
  24   12   13 ar
  25   12   18 ar
  26   13   14 1
  27   13   15 ar
  28   14   38 1
  29   14   39 1
  30   15   16 ar
  31   16   17 ar
  32   16   19 1
  33   17   18 ar
  34   19   40 1
  35   20   21 2
  36   20   22 1
  37   20   24 1
  38   20   25 1
  39   23   26 1
  40   23   41 1
  41   24   42 1
  42   25   26 1
  43   26   27 2
  44   26   28 1
  45   28   43 1

#	End of record

