#	Name: ASD02030353
#	Creating user name:	WinNT
#	Creation time:	15. 06. 2019 20:15

#	Modifying user name:	WinNT
#	Modification time:	15. 06. 2019 20:15

#	Program:	/corina/corina34_cracker 3.40 0067  02.08.2006

@<TRIPOS>MOLECULE
ASD02030353
  37   38    0    0    0
SMALL
NO_CHARGES


@<TRIPOS>ATOM
   1 N1             0.0963     1.4594    -0.2012 N.3     
   2 C2             0.1455    -0.0080    -0.2495 C.3     
   3 C3             0.7125    -0.5405     1.0708 C.3     
   4 N4             2.0037     0.1170     1.3237 N.am    
   5 C5             2.0627     1.5849     1.2530 C.3     
   6 C6             1.4424     2.0337    -0.0744 C.3     
   7 C7             3.1034    -0.6064     1.6129 C.2     
   8 O8             4.1871    -0.0616     1.6862 O.2     
   9 C9             2.9911    -2.0659     1.8414 C.ar    
  10 C10            4.1443    -2.8364     1.9562 C.ar    
  11 N11            1.7907    -2.6258     1.9403 N.ar    
  12 C12            1.6478    -3.9214     2.1441 C.ar    
  13 C13            2.7600    -4.7507     2.2630 C.ar    
  14 C14            4.0270    -4.2021     2.1706 C.ar    
  15 O15            0.4028    -4.4518     2.2392 O.3     
  16 C16           -0.6982    -3.5501     2.1093 C.3     
  17 C17            1.3509     3.5607    -0.1048 C.3     
  18 C18           -1.2663    -0.5595    -0.4581 C.3     
  19 H19           -0.3812     1.8319    -1.0083 H       
  20 H20            0.7852    -0.3236    -1.0737 H       
  21 H21            0.0217    -0.3154     1.8832 H       
  22 H22            0.8585    -1.6183     0.9984 H       
  23 H23            1.5016     2.0143     2.0831 H       
  24 H24            3.1012     1.9124     1.3012 H       
  25 H25            2.0641     1.6897    -0.9010 H       
  26 H26            5.1187    -2.3769     1.8790 H       
  27 H27            2.6351    -5.8104     2.4298 H       
  28 H28            4.9054    -4.8241     2.2592 H       
  29 H29           -0.6419    -2.7929     2.8913 H       
  30 H30           -0.6593    -3.0675     1.1327 H       
  31 H31           -1.6332    -4.1022     2.2048 H       
  32 H32            2.3497     3.9865    -0.0082 H       
  33 H33            0.9097     3.8795    -1.0491 H       
  34 H34            0.7282     3.9039     0.7214 H       
  35 H35           -1.6703    -0.1787    -1.3962 H       
  36 H36           -1.2295    -1.6483    -0.4939 H       
  37 H37           -1.9051    -0.2445     0.3670 H       
@<TRIPOS>BOND
   1    1    2 1
   2    1    6 1
   3    1   19 1
   4    2    3 1
   5    2   18 1
   6    2   20 1
   7    3    4 1
   8    3   21 1
   9    3   22 1
  10    4    5 1
  11    4    7 am
  12    5    6 1
  13    5   23 1
  14    5   24 1
  15    6   17 1
  16    6   25 1
  17    7    8 2
  18    7    9 1
  19    9   10 ar
  20    9   11 ar
  21   10   14 ar
  22   10   26 1
  23   11   12 ar
  24   12   13 ar
  25   12   15 1
  26   13   14 ar
  27   13   27 1
  28   14   28 1
  29   15   16 1
  30   16   29 1
  31   16   30 1
  32   16   31 1
  33   17   32 1
  34   17   33 1
  35   17   34 1
  36   18   35 1
  37   18   36 1
  38   18   37 1

#	End of record

