#	Name: ASD03331104
#	Creating user name:	WinNT
#	Creation time:	15. 06. 2019 20:38

#	Modifying user name:	WinNT
#	Modification time:	15. 06. 2019 20:38

#	Program:	/corina/corina34_cracker 3.40 0067  02.08.2006

@<TRIPOS>MOLECULE
ASD03331104
  54   56    0    0    0
SMALL
NO_CHARGES


@<TRIPOS>ATOM
   1 N1             0.7344     0.8440    -0.3566 N.pl3   
   2 C2             0.5630    -0.5507    -0.2545 C.2     
   3 C3             1.5569    -1.4589    -0.0998 C.2     
   4 N4             2.8585    -1.0032    -0.0212 N.pl3   
   5 C5             3.1980    -0.0805     0.9587 C.2     
   6 C6             2.8050     1.1807     0.8420 C.2     
   7 C7             2.0194     1.5467    -0.4061 C.3     
   8 C8            -0.6091     1.4196    -0.4186 C.3     
   9 N9            -1.5432     0.2876    -0.4142 N.2     
  10 C10           -0.8710    -0.8266    -0.3251 C.2     
  11 C11           -1.4768    -2.1839    -0.2990 C.2     
  12 O12           -0.7657    -3.1647    -0.2136 O.2     
  13 N13           -2.8152    -2.3260    -0.3701 N.am    
  14 S14           -2.3788     2.5642     1.5056 S.3     
  15 C15           -0.8526     2.2962     0.7829 C.2     
  16 N16            0.0605     2.9530     1.4150 N.2     
  17 C17           -0.3248     3.6741     2.4486 C.2     
  18 C18           -1.6359     3.6226     2.7024 C.2     
  19 C19            3.8707    -1.4892    -0.9623 C.3     
  20 C20           -4.7558    -3.6272    -1.0259 C.2     
  21 C21           -3.4122    -3.6636    -0.3444 C.3     
  22 C22           -3.5884    -4.1156     1.1066 C.3     
  23 C23           -4.2104    -5.5132     1.1334 C.3     
  24 O24           -5.3324    -2.5705    -1.1736 O.2     
  25 N25           -5.3166    -4.7689    -1.4714 N.am    
  26 C26           -6.6601    -4.7459    -2.0551 C.3     
  27 C27           -2.2245    -4.1510     1.7990 C.3     
  28 C28           -4.5066    -3.1347     1.8384 C.3     
  29 H29            1.3364    -2.5144    -0.0390 H       
  30 H30            3.7804    -0.3890     1.8143 H       
  31 H31            3.0329     1.9149     1.6005 H       
  32 H32            2.5732     1.2392    -1.2931 H       
  33 H33            1.8497     2.6231    -0.4319 H       
  34 H34           -0.7265     1.9983    -1.3348 H       
  35 H35           -3.3831    -1.5426    -0.4383 H       
  36 H36            0.3627     4.2585     3.0421 H       
  37 H37           -2.1493     4.1385     3.5003 H       
  38 H38            3.8918    -0.8422    -1.8393 H       
  39 H39            4.8485    -1.4805    -0.4807 H       
  40 H40            3.6247    -2.5064    -1.2671 H       
  41 H41           -2.7590    -4.3631    -0.8661 H       
  42 H42           -3.5488    -6.2152     0.6258 H       
  43 H43           -4.3505    -5.8288     2.1673 H       
  44 H44           -5.1750    -5.4915     0.6263 H       
  45 H45           -4.8307    -5.6058    -1.4054 H       
  46 H46           -7.3707    -4.3740    -1.3170 H       
  47 H47           -6.6662    -4.0919    -2.9271 H       
  48 H48           -6.9430    -5.7548    -2.3556 H       
  49 H49           -1.7814    -3.1553     1.7799 H       
  50 H50           -2.3501    -4.4730     2.8328 H       
  51 H51           -1.5704    -4.8498     1.2777 H       
  52 H52           -5.4783    -3.1095     1.3452 H       
  53 H53           -4.6322    -3.4567     2.8722 H       
  54 H54           -4.0635    -2.1390     1.8193 H       
@<TRIPOS>BOND
   1    1    2 1
   2    1    7 1
   3    1    8 1
   4    2    3 2
   5    2   10 1
   6    3    4 1
   7    3   29 1
   8    4    5 1
   9    4   19 1
  10    5    6 2
  11    5   30 1
  12    6    7 1
  13    6   31 1
  14    7   32 1
  15    7   33 1
  16    8    9 1
  17    8   15 1
  18    8   34 1
  19    9   10 2
  20   10   11 1
  21   11   12 2
  22   11   13 am
  23   13   21 1
  24   13   35 1
  25   14   15 1
  26   14   18 1
  27   15   16 2
  28   16   17 1
  29   17   18 2
  30   17   36 1
  31   18   37 1
  32   19   38 1
  33   19   39 1
  34   19   40 1
  35   20   24 2
  36   20   25 am
  37   20   21 1
  38   21   22 1
  39   21   41 1
  40   22   23 1
  41   22   27 1
  42   22   28 1
  43   23   42 1
  44   23   43 1
  45   23   44 1
  46   25   26 1
  47   25   45 1
  48   26   46 1
  49   26   47 1
  50   26   48 1
  51   27   49 1
  52   27   50 1
  53   27   51 1
  54   28   52 1
  55   28   53 1
  56   28   54 1

#	End of record

