#	Name: ASD01209187
#	Creating user name:	WinNT
#	Creation time:	15. 06. 2019 19:11

#	Modifying user name:	WinNT
#	Modification time:	15. 06. 2019 19:11

#	Program:	/corina/corina34_cracker 3.40 0067  02.08.2006

@<TRIPOS>MOLECULE
ASD01209187
  71   73    0    0    0
SMALL
NO_CHARGES


@<TRIPOS>ATOM
   1 O1             1.9801     0.5631    -0.5559 O.3     
   2 O2             3.4724     1.8825     1.1600 O.3     
   3 C3             3.1431     7.0093    -8.3582 C.ar    
   4 C4             2.4600     6.9531    -9.5642 C.ar    
   5 C5             1.2955     6.2064    -9.6724 C.ar    
   6 C6             0.8108     5.5131    -8.5760 C.ar    
   7 C7             1.4948     5.5669    -7.3607 C.ar    
   8 C8             2.6682     6.3146    -7.2579 C.ar    
   9 O9             0.6296     6.1554   -10.8561 O.3     
  10 C10            0.9806     4.8293    -6.1874 C.2     
  11 N11            1.6428     4.8826    -5.0147 N.am    
  12 O12           -0.0394     4.1746    -6.2802 O.2     
  13 C13            1.1596     4.1895    -3.9123 C.2     
  14 P14            2.7979     1.9264    -0.3012 P.3     
  15 O15            3.8542     2.0673    -1.3282 O.2     
  16 C16            1.6589     3.3462    -0.4023 C.3     
  17 N17            1.7176     4.1737    -2.7421 N.2     
  18 S18           -0.2615     3.2391    -3.8988 S.3     
  19 C19            0.0054     2.8452    -2.2025 C.2     
  20 C20            1.1213     3.4600    -1.8055 C.2     
  21 C21            2.6093    -0.7169    -0.6445 C.3     
  22 C22            1.5478    -1.7910    -0.8902 C.3     
  23 C23            4.4910     0.9468     1.5193 C.3     
  24 C24            4.9074     1.1794     2.9730 C.3     
  25 O25            4.2830     7.7425    -8.2576 O.3     
  26 C26            4.8697     7.8548    -6.9594 C.3     
  27 C27            5.7548     6.6357    -6.6926 C.3     
  28 C28            5.7184     9.1260    -6.8916 C.3     
  29 C29            1.2290     6.8252   -11.9670 C.3     
  30 C30            0.8312     8.3248   -11.9837 C.3     
  31 C31            0.9613     8.6643   -13.4895 C.3     
  32 N32            0.4897     7.4563   -14.1908 N.am    
  33 C33            0.6513     6.2995   -13.2980 C.3     
  34 S34           -0.1217     7.4101   -15.7291 S.o2    
  35 O35           -0.9679     6.2686   -15.7358 O.2     
  36 O36           -0.6482     8.7136   -15.9362 O.2     
  37 C37            1.3278     7.1341   -16.7842 C.3     
  38 H38            2.8354     7.4923   -10.4213 H       
  39 H39           -0.0959     4.9324    -8.6609 H       
  40 H40            3.2007     6.3589    -6.3193 H       
  41 H41            2.4567     5.4050    -4.9407 H       
  42 H42            0.8322     3.1989     0.2927 H       
  43 H43            2.1934     4.2600    -0.1427 H       
  44 H44           -0.6258     2.2186    -1.5899 H       
  45 H45            3.3220    -0.7151    -1.4692 H       
  46 H46            3.1326    -0.9298     0.2876 H       
  47 H47            0.8350    -1.7928    -0.0656 H       
  48 H48            1.0244    -1.5781    -1.8224 H       
  49 H49            2.0276    -2.7673    -0.9578 H       
  50 H50            4.1078    -0.0676     1.4089 H       
  51 H51            5.3545     1.0818     0.8679 H       
  52 H52            4.0439     1.0443     3.6244 H       
  53 H53            5.6843     0.4656     3.2470 H       
  54 H54            5.2907     2.1938     3.0834 H       
  55 H55            4.0819     7.9033    -6.2077 H       
  56 H56            6.2023     6.7214    -5.7023 H       
  57 H57            5.1502     5.7301    -6.7409 H       
  58 H58            6.5426     6.5872    -7.4443 H       
  59 H59            5.0878     9.9945    -7.0817 H       
  60 H60            6.1659     9.2117    -5.9014 H       
  61 H61            6.5062     9.0774    -7.6433 H       
  62 H62            2.3131     6.7140   -11.9433 H       
  63 H63           -0.1940     8.4609   -11.6396 H       
  64 H64            1.5238     8.9194   -11.3879 H       
  65 H65            0.3331     9.5187   -13.7414 H       
  66 H66            2.0012     8.8689   -13.7439 H       
  67 H67            1.3399     5.5811   -13.7429 H       
  68 H68           -0.3160     5.8289   -13.1221 H       
  69 H69            1.8049     6.1939   -16.5076 H       
  70 H70            1.0147     7.0895   -17.8274 H       
  71 H71            2.0349     7.9530   -16.6518 H       
@<TRIPOS>BOND
   1    1   21 1
   2    1   14 1
   3    2   23 1
   4    2   14 1
   5    3    4 ar
   6    3   25 1
   7    3    8 ar
   8    4    5 ar
   9    4   38 1
  10    5    6 ar
  11    5    9 1
  12    6    7 ar
  13    6   39 1
  14    7    8 ar
  15    7   10 1
  16    8   40 1
  17    9   29 1
  18   10   11 am
  19   10   12 2
  20   11   13 1
  21   11   41 1
  22   13   17 2
  23   13   18 1
  24   14   15 2
  25   14   16 1
  26   16   20 1
  27   16   42 1
  28   16   43 1
  29   17   20 1
  30   18   19 1
  31   19   20 2
  32   19   44 1
  33   21   22 1
  34   21   45 1
  35   21   46 1
  36   22   47 1
  37   22   48 1
  38   22   49 1
  39   23   24 1
  40   23   50 1
  41   23   51 1
  42   24   52 1
  43   24   53 1
  44   24   54 1
  45   25   26 1
  46   26   27 1
  47   26   28 1
  48   26   55 1
  49   27   56 1
  50   27   57 1
  51   27   58 1
  52   28   59 1
  53   28   60 1
  54   28   61 1
  55   29   30 1
  56   29   33 1
  57   29   62 1
  58   30   31 1
  59   30   63 1
  60   30   64 1
  61   31   32 1
  62   31   65 1
  63   31   66 1
  64   32   33 1
  65   32   34 am
  66   33   67 1
  67   33   68 1
  68   34   35 2
  69   34   36 2
  70   34   37 1
  71   37   69 1
  72   37   70 1
  73   37   71 1

#	End of record

