#	Name: ASD06610086
#	Creating user name:	WinNT
#	Creation time:	15. 06. 2019 21:07

#	Modifying user name:	WinNT
#	Modification time:	15. 06. 2019 21:07

#	Program:	/corina/corina34_cracker 3.40 0067  02.08.2006

@<TRIPOS>MOLECULE
ASD06610086
 388  389    0    0    0
SMALL
NO_CHARGES


@<TRIPOS>ATOM
   1 C1            -3.0925    -2.8122     8.5330 C.2     
   2 O2            -3.3463    -3.9752     8.7652 O.2     
   3 N3            -0.9374    -3.2068     9.5840 N.3     
   4 C4            -1.6860    -2.2991     8.7045 C.3     
   5 C5            -0.9985    -2.2295     7.3394 C.3     
   6 C6             0.3838    -1.5926     7.4964 C.3     
   7 C7             1.0609    -1.5241     6.1518 C.2     
   8 O8             0.4941    -1.9432     5.1656 O.2     
   9 N9             2.2967    -0.9969     6.0458 N.am    
  10 C10           -6.1603    -1.6206     6.9418 C.2     
  11 O11           -5.5932    -0.6825     6.4230 O.2     
  12 N12           -4.0673    -1.9800     8.1162 N.am    
  13 C13           -5.4334    -2.4802     7.9437 C.3     
  14 C14           -6.1675    -2.4316     9.2852 C.3     
  15 C15           -5.3637    -3.2020    10.3346 C.3     
  16 O16           -6.3124    -1.0718     9.6999 O.3     
  17 C17           -9.6311    -1.1396     5.8999 C.2     
  18 O18          -10.0563    -1.8275     6.8038 O.2     
  19 N19           -7.4408    -1.8943     6.6224 N.am    
  20 C20           -8.1474    -1.0587     5.6484 C.3     
  21 C21           -7.8422    -1.5553     4.2338 C.3     
  22 C22           -8.3052    -3.0066     4.0917 C.3     
  23 C23           -8.1146    -3.4633     2.6439 C.3     
  24 C24           -6.3359    -1.4731     3.9784 C.3     
  25 C25          -12.6708    -0.2177     4.0908 C.2     
  26 O26          -12.0562     0.0422     3.0781 O.2     
  27 N27          -10.4855    -0.4475     5.1205 N.am    
  28 C28          -11.9278    -0.5261     5.3650 C.3     
  29 C29          -12.3186     0.4884     6.4416 C.3     
  30 C30          -16.2245    -0.0118     3.0893 C.2     
  31 O31          -16.6378    -0.2922     4.1945 O.2     
  32 N32          -14.0185    -0.2307     4.0765 N.am    
  33 C33          -14.7408     0.0691     2.8377 C.3     
  34 C34          -19.2470    -0.1567     1.0384 C.2     
  35 O35          -18.6126    -0.2952     0.0140 O.2     
  36 N36          -17.0921     0.2276     2.0860 N.am    
  37 C37          -18.5344     0.1489     2.3306 C.3     
  38 C38          -19.0316     1.4862     2.8833 C.3     
  39 C39          -18.4111     1.7333     4.2342 C.2     
  40 C40          -17.7060     2.8228     4.5938 C.2     
  41 N41          -17.3308     2.6392     5.8973 N.pl3   
  42 C42          -17.8201     1.4431     6.2892 C.2     
  43 N43          -18.4693     0.9092     5.2909 N.2     
  44 C44          -22.7000    -0.0682    -0.1586 C.2     
  45 O45          -23.0930     0.4855     0.8464 O.2     
  46 N46          -20.5894    -0.2761     1.0210 N.am    
  47 C47          -21.2822    -0.5732    -0.2352 C.3     
  48 C48          -21.2914    -2.0855    -0.4672 C.3     
  49 C49          -19.8789    -2.5718    -0.6662 C.ar    
  50 C50          -19.1275    -2.9763     0.4213 C.ar    
  51 C51          -17.8319    -3.4223     0.2388 C.ar    
  52 C52          -17.2878    -3.4642    -1.0313 C.ar    
  53 C53          -18.0395    -3.0606    -2.1189 C.ar    
  54 C54          -19.3366    -2.6187    -1.9369 C.ar    
  55 C55          -25.7760    -0.5310    -2.0786 C.2     
  56 O56          -25.2902    -1.4171    -2.7492 O.2     
  57 N57          -23.5311    -0.2317    -1.2068 N.am    
  58 C58          -24.9094     0.2593    -1.1324 C.3     
  59 C59          -24.9457     1.7384    -1.5222 C.3     
  60 C60          -24.1680     2.5571    -0.4899 C.3     
  61 C61          -24.2042     4.0362    -0.8797 C.3     
  62 N62          -23.4596     4.8201     0.1088 N.pl3   
  63 C63          -23.3541     6.1835    -0.0333 C.2     
  64 N64          -22.6915     6.8810     0.8462 N.2     
  65 N65          -23.9474     6.8112    -1.1029 N.pl3   
  66 C66          -29.1283    -0.1934    -3.4967 C.2     
  67 O67          -29.2630     0.9280    -3.0549 O.2     
  68 N68          -27.0909    -0.2531    -2.1797 N.am    
  69 C69          -27.9334    -1.0214    -3.0996 C.3     
  70 C70          -28.4069    -2.3018    -2.4088 C.3     
  71 C71          -27.2026    -3.1994    -2.1175 C.3     
  72 C72          -27.6761    -4.4798    -1.4266 C.3     
  73 C73          -26.4719    -5.3774    -1.1353 C.3     
  74 N74          -26.9265    -6.6067    -0.4720 N.3     
  75 C75          -32.3395    -0.8053    -5.1329 C.2     
  76 O76          -32.1896    -2.0084    -5.1015 O.2     
  77 N77          -30.0474    -0.6992    -4.3429 N.am    
  78 C78          -31.2090     0.1057    -4.7290 C.3     
  79 C79          -30.8356     1.0081    -5.9067 C.3     
  80 C80          -29.7749     2.0164    -5.4603 C.3     
  81 C81          -29.4070     2.9053    -6.6203 C.2     
  82 O82          -29.9387     2.7485    -7.6939 O.2     
  83 O83          -28.4888     3.8712    -6.4608 O.3     
  84 C84          -35.5391    -0.4373    -6.8622 C.2     
  85 O85          -35.3023     0.7107    -7.1736 O.2     
  86 N86          -33.5171    -0.2831    -5.5292 N.am    
  87 C87          -34.6160    -1.1687    -5.9219 C.3     
  88 C88          -35.3935    -1.5998    -4.6766 C.3     
  89 C89          -34.4901    -2.4488    -3.7800 C.3     
  90 C90          -35.2676    -2.8800    -2.5347 C.3     
  91 N91          -34.4026    -3.6929    -1.6762 N.pl3   
  92 C92          -34.8869    -4.1966    -0.4922 C.2     
  93 N93          -34.1174    -4.9199     0.2717 N.2     
  94 N94          -36.1830    -3.9374    -0.1139 N.pl3   
  95 C95          -38.9785    -0.7756    -7.8889 C.2     
  96 O96          -39.1645    -1.6779    -7.1002 O.2     
  97 N97          -36.6278    -1.0589    -7.3570 N.am    
  98 C98          -37.5750    -0.3204    -8.1958 C.3     
  99 C99          -37.2641    -0.5847    -9.6703 C.3     
 100 C100         -37.1876    -2.0934    -9.9130 C.3     
 101 C101         -38.5780    -2.7086    -9.7422 C.3     
 102 C102         -35.9240     0.0587   -10.0323 C.3     
 103 C103         -42.2742    -0.3034    -9.3984 C.2     
 104 O104         -41.8142     0.2873   -10.3525 O.2     
 105 N105         -40.0269    -0.1798    -8.4908 N.am    
 106 C106         -41.3879    -0.6559    -8.2316 C.3     
 107 C107         -41.9273     0.0075    -6.9628 C.3     
 108 C108         -41.1023    -0.4496    -5.7581 C.3     
 109 C109         -41.6336     0.2038    -4.5084 C.2     
 110 O110         -42.5754     0.9578    -4.5745 O.2     
 111 O111         -41.0604    -0.0517    -3.3218 O.3     
 112 C112         -45.8395    -0.7918   -10.2492 C.2     
 113 O113         -46.0927    -1.3701    -9.2137 O.2     
 114 N114         -43.5779    -0.6447    -9.3816 N.am    
 115 C115         -44.4395    -0.3020   -10.5159 C.3     
 116 C116         -48.8842    -1.2835   -12.2115 C.2     
 117 O117         -48.3119    -1.0643   -13.2581 O.2     
 118 N118         -46.8102    -0.5871   -11.1615 N.am    
 119 C119         -48.1712    -1.0632   -10.9023 C.3     
 120 C120         -48.9283    -0.0197   -10.0785 C.3     
 121 C121         -48.2766     0.1131    -8.7006 C.3     
 122 C122         -48.9544     1.2428    -7.9226 C.3     
 123 C123         -48.4346    -1.2010    -7.9330 C.3     
 124 C124         -52.3385    -1.8214   -13.2799 C.2     
 125 O125         -52.7765    -1.5830   -12.1744 O.2     
 126 N126         -50.1580    -1.7240   -12.2194 N.am    
 127 C127         -50.8511    -1.9380   -13.4922 C.3     
 128 C128         -50.5198    -3.3335   -14.0249 C.3     
 129 C129         -49.0286    -3.4115   -14.3581 C.3     
 130 C130         -48.6973    -4.8069   -14.8908 C.3     
 131 N131         -47.2694    -4.8816   -15.2098 N.pl3   
 132 C132         -46.7362    -6.0470   -15.7075 C.2     
 133 N133         -45.4658    -6.1134   -15.9913 N.2     
 134 N134         -47.5431    -7.1423   -15.9059 N.pl3   
 135 C135         -55.3505    -2.6533   -15.1771 C.2     
 136 O136         -54.7196    -3.2485   -16.0249 O.2     
 137 N137         -53.1821    -1.9821   -14.3187 N.am    
 138 C138         -54.6281    -1.8688   -14.1124 C.3     
 139 C139         -55.0411    -0.3978   -14.1941 C.3     
 140 C140         -54.4053     0.3755   -13.0371 C.3     
 141 C141         -54.8184     1.8464   -13.1188 C.3     
 142 C142         -54.1826     2.6197   -11.9618 C.3     
 143 N143         -54.5792     4.0319   -12.0402 N.3     
 144 C144         -58.7823    -2.8878   -16.4142 C.2     
 145 O145         -59.1453    -1.9391   -15.7515 O.2     
 146 N146         -56.6976    -2.6935   -15.1873 N.am    
 147 C147         -57.3999    -3.4561   -16.2224 C.3     
 148 C148         -57.5056    -4.9209   -15.7933 C.3     
 149 C149         -56.1054    -5.5330   -15.7194 C.3     
 150 C150         -56.2111    -6.9978   -15.2902 C.3     
 151 N151         -54.8703    -7.5839   -15.2195 N.pl3   
 152 C152         -54.7138    -8.8996   -14.8524 C.2     
 153 N153         -53.5209    -9.4211   -14.7894 N.2     
 154 N154         -55.8154    -9.6651   -14.5517 N.pl3   
 155 C155         -61.8969    -3.4884   -16.4969 C.2     
 156 O156         -61.4847    -4.2995   -15.7018 O.2     
 157 N157         -59.6154    -3.4337   -17.3221 N.am    
 158 C158         -60.9594    -2.8813   -17.5086 C.3     
 159 C159         -61.4528    -3.2054   -18.9201 C.3     
 160 C160         -60.5738    -2.4863   -19.9453 C.3     
 161 C161         -61.0672    -2.8105   -21.3568 C.3     
 162 N162         -60.2255    -2.1220   -22.3385 N.pl3   
 163 C163         -60.4797    -2.2643   -23.6821 C.2     
 164 N164         -59.7308    -1.6517   -24.5555 N.2     
 165 N165         -61.5237    -3.0528   -24.1045 N.pl3   
 166 O166         -63.1898    -3.1283   -16.4791 O.3     
 167 C167           2.9024    -0.9356     4.8433 C.2     
 168 O168           2.3355    -1.3547     3.8571 O.2     
 169 C169          17.2717     3.4895    -6.3428 C.3     
 170 C170          15.8688     2.8910    -6.2224 C.3     
 171 C171          15.4164     2.9415    -4.7617 C.3     
 172 C172          14.0134     2.3430    -4.6413 C.3     
 173 C173          13.5610     2.3936    -3.1806 C.3     
 174 C174          12.1581     1.7951    -3.0602 C.3     
 175 C175          11.7056     1.8456    -1.5995 C.3     
 176 C176          10.3027     1.2471    -1.4792 C.3     
 177 C177           9.8503     1.2977    -0.0185 C.3     
 178 C178           8.4474     0.6992     0.1019 C.3     
 179 C179           7.9949     0.7498     1.5626 C.3     
 180 C180           6.5920     0.1513     1.6830 C.3     
 181 C181           6.1396     0.2018     3.1437 C.3     
 182 C182           4.7366    -0.3967     3.2641 C.3     
 183 C183           4.2842    -0.3461     4.7248 C.3     
 184 H184          -1.3343    -3.2204    10.5116 H       
 185 H185          -0.8974    -4.1366     9.1942 H       
 186 H186          -1.7138    -1.3039     9.1484 H       
 187 H187          -0.8910    -3.2360     6.9350 H       
 188 H188          -1.6010    -1.6272     6.6594 H       
 189 H189           0.2762    -0.5861     7.9007 H       
 190 H190           0.9862    -2.1949     8.1764 H       
 191 H191           2.7503    -0.6615     6.8349 H       
 192 H192          -3.8643    -1.0498     7.9305 H       
 193 H193          -5.4010    -3.5087     7.5843 H       
 194 H194          -7.1526    -2.8854     9.1769 H       
 195 H195          -5.8867    -3.1674    11.2903 H       
 196 H196          -5.2532    -4.2392    10.0183 H       
 197 H197          -4.3786    -2.7482    10.4429 H       
 198 H198          -6.7702    -0.9650    10.5449 H       
 199 H199          -7.8944    -2.6446     7.0373 H       
 200 H200          -7.8176    -0.0248     5.7497 H       
 201 H201          -8.3680    -0.9335     3.5091 H       
 202 H202          -7.7169    -3.6421     4.7536 H       
 203 H203          -9.3591    -3.0796     4.3600 H       
 204 H204          -7.0607    -3.3902     2.3756 H       
 205 H205          -8.4445    -4.4972     2.5427 H       
 206 H206          -8.7029    -2.8277     1.9820 H       
 207 H207          -6.1184    -1.8269     2.9706 H       
 208 H208          -6.0060    -0.4392     4.0797 H       
 209 H209          -5.8101    -2.0949     4.7031 H       
 210 H210         -10.1454     0.1027     4.3976 H       
 211 H211         -12.1850    -1.5304     5.7017 H       
 212 H212         -13.3917     0.4299     6.6235 H       
 213 H213         -11.7811     0.2653     7.3633 H       
 214 H214         -12.0613     1.4927     6.1049 H       
 215 H215         -14.5101    -0.4385     4.8865 H       
 216 H216         -14.4624    -0.6536     2.0708 H       
 217 H217         -14.4836     1.0734     2.5011 H       
 218 H218         -16.7615     0.4518     1.2021 H       
 219 H219         -18.7378    -0.6412     3.0534 H       
 220 H220         -18.7495     2.2885     2.2016 H       
 221 H221         -20.1168     1.4577     2.9816 H       
 222 H222         -17.4797     3.6771     3.9730 H       
 223 H223         -16.8107     3.2536     6.4386 H       
 224 H224         -17.6979     1.0030     7.2679 H       
 225 H225         -21.0968    -0.1653     1.8403 H       
 226 H226         -20.7656    -0.0822    -1.0599 H       
 227 H227         -21.7284    -2.5833     0.3984 H       
 228 H228         -21.8825    -2.3134    -1.3542 H       
 229 H229         -19.5526    -2.9435     1.4136 H       
 230 H230         -17.2446    -3.7376     1.0885 H       
 231 H231         -16.2753    -3.8120    -1.1738 H       
 232 H232         -17.6143    -3.0930    -3.1112 H       
 233 H233         -19.9252    -2.3068    -2.7870 H       
 234 H234         -23.2168    -0.6745    -2.0106 H       
 235 H235         -25.2822     0.1425    -0.1148 H       
 236 H236         -24.4911     1.8664    -2.5046 H       
 237 H237         -25.9800     2.0807    -1.5530 H       
 238 H238         -24.6225     2.4291     0.4925 H       
 239 H239         -23.1336     2.2147    -0.4591 H       
 240 H240         -23.7497     4.1642    -1.8622 H       
 241 H241         -25.2386     4.3785    -0.9105 H       
 242 H242         -23.0410     4.3773     0.8634 H       
 243 H243         -22.6171     7.8430     0.7460 H       
 244 H244         -24.4404     6.2921    -1.7574 H       
 245 H245         -23.8729     7.7731    -1.2031 H       
 246 H246         -27.4795     0.4556    -1.6434 H       
 247 H247         -27.3586    -1.2796    -3.9890 H       
 248 H248         -28.9050    -2.0470    -1.4733 H       
 249 H249         -29.1042    -2.8292    -3.0597 H       
 250 H250         -26.7046    -3.4541    -3.0530 H       
 251 H251         -26.5053    -2.6719    -1.4666 H       
 252 H252         -28.1742    -4.2250    -0.4911 H       
 253 H253         -28.3734    -5.0072    -2.0775 H       
 254 H254         -25.9738    -5.6321    -2.0708 H       
 255 H255         -25.7746    -4.8499    -0.4844 H       
 256 H256         -26.1489    -7.2168    -0.2689 H       
 257 H257         -27.4478    -6.3942     0.3654 H       
 258 H258         -29.9397    -1.5961    -4.6964 H       
 259 H259         -31.5217     0.7205    -3.8850 H       
 260 H260         -30.4391     0.3995    -6.7194 H       
 261 H261         -31.7217     1.5414    -6.2510 H       
 262 H262         -30.1714     2.6250    -4.6476 H       
 263 H263         -28.8888     1.4831    -5.1159 H       
 264 H264         -28.2859     4.4160    -7.2335 H       
 265 H265         -33.6370     0.6791    -5.5543 H       
 266 H266         -34.2122    -2.0495    -6.4211 H       
 267 H267         -35.7217    -0.7162    -4.1293 H       
 268 H268         -36.2626    -2.1857    -4.9757 H       
 269 H269         -34.1619    -3.3324    -4.3274 H       
 270 H270         -33.6210    -1.8630    -3.4809 H       
 271 H271         -35.5958    -1.9964    -1.9874 H       
 272 H272         -36.1367    -3.4658    -2.8338 H       
 273 H273         -33.4881    -3.8758    -1.9430 H       
 274 H274         -34.4591    -5.2753     1.1070 H       
 275 H275         -36.7558    -3.3992    -0.6824 H       
 276 H276         -36.5248    -4.2928     0.7214 H       
 277 H277         -36.7841    -1.9953    -7.1578 H       
 278 H278         -37.4862     0.7465    -7.9913 H       
 279 H279         -38.0519    -0.1565   -10.2902 H       
 280 H280         -36.8291    -2.2809   -10.9251 H       
 281 H281         -36.5010    -2.5425    -9.1953 H       
 282 H282         -38.5820    -3.7177   -10.1544 H       
 283 H283         -38.8303    -2.7479    -8.6826 H       
 284 H284         -39.3124    -2.0985   -10.2682 H       
 285 H285         -35.1218    -0.4448    -9.4928 H       
 286 H286         -35.7544    -0.0340   -11.1050 H       
 287 H287         -35.9411     1.1132    -9.7569 H       
 288 H288         -39.8803     0.5642    -9.0957 H       
 289 H289         -41.3753    -1.7377    -8.0987 H       
 290 H290         -41.8572     1.0908    -7.0613 H       
 291 H291         -42.9695    -0.2775    -6.8187 H       
 292 H292         -41.1724    -1.5329    -5.6597 H       
 293 H293         -40.0601    -0.1646    -5.9022 H       
 294 H294         -41.4361     0.3908    -2.5484 H       
 295 H295         -43.9458    -1.1171    -8.6185 H       
 296 H296         -44.0552    -0.7747   -11.4198 H       
 297 H297         -44.4521     0.7798   -10.6487 H       
 298 H298         -46.6077    -0.1246   -11.9897 H       
 299 H299         -48.1287    -2.0016   -10.3494 H       
 300 H300         -48.8944     0.9419   -10.5906 H       
 301 H301         -49.9659    -0.3324    -9.9611 H       
 302 H302         -47.2170     0.3389    -8.8200 H       
 303 H303         -50.0140     1.0170    -7.8031 H       
 304 H304         -48.4901     1.3374    -6.9410 H       
 305 H305         -48.8418     2.1790    -8.4695 H       
 306 H306         -49.4942    -1.4268    -7.8135 H       
 307 H307         -47.9518    -2.0058    -8.4872 H       
 308 H308         -47.9703    -1.1064    -6.9513 H       
 309 H309         -50.6157    -1.8992   -11.3824 H       
 310 H310         -50.5270    -1.1875   -14.2131 H       
 311 H311         -50.7623    -4.0787   -13.2673 H       
 312 H312         -51.1038    -3.5270   -14.9248 H       
 313 H313         -48.7861    -2.6663   -15.1157 H       
 314 H314         -48.4447    -3.2180   -13.4582 H       
 315 H315         -48.9398    -5.5521   -14.1331 H       
 316 H316         -49.2812    -5.0004   -15.7906 H       
 317 H317         -46.7001    -4.1088   -15.0698 H       
 318 H318         -45.0896    -6.9356   -16.3425 H       
 319 H319         -48.4885    -7.0929   -15.6947 H       
 320 H320         -47.1669    -7.9646   -16.2571 H       
 321 H321         -52.8319    -2.1729   -15.2029 H       
 322 H322         -54.8872    -2.2649   -13.1305 H       
 323 H323         -54.7030     0.0224   -15.1412 H       
 324 H324         -56.1265    -0.3211   -14.1294 H       
 325 H325         -54.7435    -0.0448   -12.0899 H       
 326 H326         -53.3200     0.2987   -13.1018 H       
 327 H327         -54.4802     2.2666   -14.0660 H       
 328 H328         -55.9037     1.9231   -13.0541 H       
 329 H329         -54.5207     2.1994   -11.0146 H       
 330 H330         -53.0972     2.5429   -12.0265 H       
 331 H331         -55.5838     4.1256   -12.0473 H       
 332 H332         -54.1717     4.5644   -11.2862 H       
 333 H333         -57.2022    -2.2174   -14.5093 H       
 334 H334         -56.8471    -3.3911   -17.1596 H       
 335 H335         -57.9798    -4.9791   -14.8136 H       
 336 H336         -58.1043    -5.4701   -16.5199 H       
 337 H337         -55.6312    -5.4748   -16.6991 H       
 338 H338         -55.5066    -4.9839   -14.9927 H       
 339 H339         -56.6853    -7.0560   -14.3105 H       
 340 H340         -56.8098    -7.5470   -16.0169 H       
 341 H341         -54.0931    -7.0438   -15.4316 H       
 342 H342         -53.4104   -10.3493   -14.5304 H       
 343 H343         -56.7031    -9.2770   -14.5986 H       
 344 H344         -55.7049   -10.5934   -14.2927 H       
 345 H345         -59.3251    -4.1925   -17.8522 H       
 346 H346         -60.9297    -1.8001   -17.3734 H       
 347 H347         -61.3984    -4.2814   -19.0858 H       
 348 H348         -62.4850    -2.8727   -19.0295 H       
 349 H349         -60.6282    -1.4104   -19.7795 H       
 350 H350         -59.5416    -2.8190   -19.8359 H       
 351 H351         -61.0127    -3.8864   -21.5226 H       
 352 H352         -62.0994    -2.4778   -21.4662 H       
 353 H353         -59.4889    -1.5656   -22.0405 H       
 354 H354         -59.9101    -1.7521   -25.5035 H       
 355 H355         -62.0810    -3.5087   -23.4545 H       
 356 H356         -61.7030    -3.1532   -25.0524 H       
 357 H357         -63.7525    -3.5448   -15.8120 H       
 358 H358          17.5940     3.4534    -7.3834 H       
 359 H359          17.2553     4.5251    -6.0031 H       
 360 H360          17.9653     2.9163    -5.7275 H       
 361 H361          15.1752     3.4642    -6.8376 H       
 362 H362          15.8852     1.8554    -6.5620 H       
 363 H363          16.1099     2.3683    -4.1464 H       
 364 H364          15.3999     3.9771    -4.4220 H       
 365 H365          13.3199     2.9162    -5.2565 H       
 366 H366          14.0299     1.3074    -4.9809 H       
 367 H367          14.2546     1.8204    -2.5654 H       
 368 H368          13.5446     3.4292    -2.8410 H       
 369 H369          11.4645     2.3683    -3.6755 H       
 370 H370          12.1745     0.7595    -3.3999 H       
 371 H371          12.3992     1.2725    -0.9843 H       
 372 H372          11.6892     2.8813    -1.2599 H       
 373 H373           9.6091     1.8203    -2.0944 H       
 374 H374          10.3191     0.2115    -1.8188 H       
 375 H375          10.5438     0.7245     0.5968 H       
 376 H376           9.8339     2.3333     0.3212 H       
 377 H377           7.7538     1.2724    -0.5133 H       
 378 H378           8.4638    -0.3364    -0.2377 H       
 379 H379           8.6885     0.1766     2.1779 H       
 380 H380           7.9785     1.7854     1.9022 H       
 381 H381           5.8984     0.7244     1.0677 H       
 382 H382           6.6084    -0.8843     1.3434 H       
 383 H383           6.8331    -0.3714     3.7589 H       
 384 H384           6.1231     1.2374     3.4833 H       
 385 H385           4.0431     0.1765     2.6488 H       
 386 H386           4.7530    -1.4323     2.9244 H       
 387 H387           4.2678     0.6895     5.0644 H       
 388 H388           4.9778    -0.9193     5.3400 H       
@<TRIPOS>BOND
   1    1    2 2
   2    1    4 1
   3    1   12 am
   4    3    4 1
   5    3  184 1
   6    3  185 1
   7    4    5 1
   8    4  186 1
   9    5    6 1
  10    5  187 1
  11    5  188 1
  12    6    7 1
  13    6  189 1
  14    6  190 1
  15    7    8 2
  16    7    9 am
  17    9  167 am
  18    9  191 1
  19   10   11 2
  20   10   13 1
  21   10   19 am
  22   12   13 1
  23   12  192 1
  24   13   14 1
  25   13  193 1
  26   14   15 1
  27   14   16 1
  28   14  194 1
  29   15  195 1
  30   15  196 1
  31   15  197 1
  32   16  198 1
  33   17   18 2
  34   17   20 1
  35   17   27 am
  36   19   20 1
  37   19  199 1
  38   20   21 1
  39   20  200 1
  40   21   22 1
  41   21   24 1
  42   21  201 1
  43   22   23 1
  44   22  202 1
  45   22  203 1
  46   23  204 1
  47   23  205 1
  48   23  206 1
  49   24  207 1
  50   24  208 1
  51   24  209 1
  52   25   26 2
  53   25   28 1
  54   25   32 am
  55   27   28 1
  56   27  210 1
  57   28   29 1
  58   28  211 1
  59   29  212 1
  60   29  213 1
  61   29  214 1
  62   30   31 2
  63   30   33 1
  64   30   36 am
  65   32   33 1
  66   32  215 1
  67   33  216 1
  68   33  217 1
  69   34   35 2
  70   34   37 1
  71   34   46 am
  72   36   37 1
  73   36  218 1
  74   37   38 1
  75   37  219 1
  76   38   39 1
  77   38  220 1
  78   38  221 1
  79   39   40 2
  80   39   43 1
  81   40   41 1
  82   40  222 1
  83   41   42 1
  84   41  223 1
  85   42   43 2
  86   42  224 1
  87   44   45 2
  88   44   47 1
  89   44   57 am
  90   46   47 1
  91   46  225 1
  92   47   48 1
  93   47  226 1
  94   48   49 1
  95   48  227 1
  96   48  228 1
  97   49   50 ar
  98   49   54 ar
  99   50   51 ar
 100   50  229 1
 101   51   52 ar
 102   51  230 1
 103   52   53 ar
 104   52  231 1
 105   53   54 ar
 106   53  232 1
 107   54  233 1
 108   55   56 2
 109   55   58 1
 110   55   68 am
 111   57   58 1
 112   57  234 1
 113   58   59 1
 114   58  235 1
 115   59   60 1
 116   59  236 1
 117   59  237 1
 118   60   61 1
 119   60  238 1
 120   60  239 1
 121   61   62 1
 122   61  240 1
 123   61  241 1
 124   62   63 1
 125   62  242 1
 126   63   64 2
 127   63   65 1
 128   64  243 1
 129   65  244 1
 130   65  245 1
 131   66   67 2
 132   66   69 1
 133   66   77 am
 134   68   69 1
 135   68  246 1
 136   69   70 1
 137   69  247 1
 138   70   71 1
 139   70  248 1
 140   70  249 1
 141   71   72 1
 142   71  250 1
 143   71  251 1
 144   72   73 1
 145   72  252 1
 146   72  253 1
 147   73   74 1
 148   73  254 1
 149   73  255 1
 150   74  256 1
 151   74  257 1
 152   75   76 2
 153   75   78 1
 154   75   86 am
 155   77   78 1
 156   77  258 1
 157   78   79 1
 158   78  259 1
 159   79   80 1
 160   79  260 1
 161   79  261 1
 162   80   81 1
 163   80  262 1
 164   80  263 1
 165   81   82 2
 166   81   83 1
 167   83  264 1
 168   84   85 2
 169   84   87 1
 170   84   97 am
 171   86   87 1
 172   86  265 1
 173   87   88 1
 174   87  266 1
 175   88   89 1
 176   88  267 1
 177   88  268 1
 178   89   90 1
 179   89  269 1
 180   89  270 1
 181   90   91 1
 182   90  271 1
 183   90  272 1
 184   91   92 1
 185   91  273 1
 186   92   93 2
 187   92   94 1
 188   93  274 1
 189   94  275 1
 190   94  276 1
 191   95   96 2
 192   95   98 1
 193   95  105 am
 194   97   98 1
 195   97  277 1
 196   98   99 1
 197   98  278 1
 198   99  100 1
 199   99  102 1
 200   99  279 1
 201  100  101 1
 202  100  280 1
 203  100  281 1
 204  101  282 1
 205  101  283 1
 206  101  284 1
 207  102  285 1
 208  102  286 1
 209  102  287 1
 210  103  104 2
 211  103  106 1
 212  103  114 am
 213  105  106 1
 214  105  288 1
 215  106  107 1
 216  106  289 1
 217  107  108 1
 218  107  290 1
 219  107  291 1
 220  108  109 1
 221  108  292 1
 222  108  293 1
 223  109  110 2
 224  109  111 1
 225  111  294 1
 226  112  113 2
 227  112  115 1
 228  112  118 am
 229  114  115 1
 230  114  295 1
 231  115  296 1
 232  115  297 1
 233  116  117 2
 234  116  119 1
 235  116  126 am
 236  118  119 1
 237  118  298 1
 238  119  120 1
 239  119  299 1
 240  120  121 1
 241  120  300 1
 242  120  301 1
 243  121  122 1
 244  121  123 1
 245  121  302 1
 246  122  303 1
 247  122  304 1
 248  122  305 1
 249  123  306 1
 250  123  307 1
 251  123  308 1
 252  124  125 2
 253  124  127 1
 254  124  137 am
 255  126  127 1
 256  126  309 1
 257  127  128 1
 258  127  310 1
 259  128  129 1
 260  128  311 1
 261  128  312 1
 262  129  130 1
 263  129  313 1
 264  129  314 1
 265  130  131 1
 266  130  315 1
 267  130  316 1
 268  131  132 1
 269  131  317 1
 270  132  133 2
 271  132  134 1
 272  133  318 1
 273  134  319 1
 274  134  320 1
 275  135  136 2
 276  135  138 1
 277  135  146 am
 278  137  138 1
 279  137  321 1
 280  138  139 1
 281  138  322 1
 282  139  140 1
 283  139  323 1
 284  139  324 1
 285  140  141 1
 286  140  325 1
 287  140  326 1
 288  141  142 1
 289  141  327 1
 290  141  328 1
 291  142  143 1
 292  142  329 1
 293  142  330 1
 294  143  331 1
 295  143  332 1
 296  144  145 2
 297  144  147 1
 298  144  157 am
 299  146  147 1
 300  146  333 1
 301  147  148 1
 302  147  334 1
 303  148  149 1
 304  148  335 1
 305  148  336 1
 306  149  150 1
 307  149  337 1
 308  149  338 1
 309  150  151 1
 310  150  339 1
 311  150  340 1
 312  151  152 1
 313  151  341 1
 314  152  153 2
 315  152  154 1
 316  153  342 1
 317  154  343 1
 318  154  344 1
 319  155  156 2
 320  155  158 1
 321  155  166 1
 322  157  158 1
 323  157  345 1
 324  158  159 1
 325  158  346 1
 326  159  160 1
 327  159  347 1
 328  159  348 1
 329  160  161 1
 330  160  349 1
 331  160  350 1
 332  161  162 1
 333  161  351 1
 334  161  352 1
 335  162  163 1
 336  162  353 1
 337  163  164 2
 338  163  165 1
 339  164  354 1
 340  165  355 1
 341  165  356 1
 342  166  357 1
 343  167  168 2
 344  167  183 1
 345  169  170 1
 346  169  358 1
 347  169  359 1
 348  169  360 1
 349  170  171 1
 350  170  361 1
 351  170  362 1
 352  171  172 1
 353  171  363 1
 354  171  364 1
 355  172  173 1
 356  172  365 1
 357  172  366 1
 358  173  174 1
 359  173  367 1
 360  173  368 1
 361  174  175 1
 362  174  369 1
 363  174  370 1
 364  175  176 1
 365  175  371 1
 366  175  372 1
 367  176  177 1
 368  176  373 1
 369  176  374 1
 370  177  178 1
 371  177  375 1
 372  177  376 1
 373  178  179 1
 374  178  377 1
 375  178  378 1
 376  179  180 1
 377  179  379 1
 378  179  380 1
 379  180  181 1
 380  180  381 1
 381  180  382 1
 382  181  182 1
 383  181  383 1
 384  181  384 1
 385  182  183 1
 386  182  385 1
 387  182  386 1
 388  183  387 1
 389  183  388 1

#	End of record

