#	Name: ASD01208480
#	Creating user name:	WinNT
#	Creation time:	15. 06. 2019 19:09

#	Modifying user name:	WinNT
#	Modification time:	15. 06. 2019 19:09

#	Program:	/corina/corina34_cracker 3.40 0067  02.08.2006

@<TRIPOS>MOLECULE
ASD01208480
  27   27    0    0    0
SMALL
NO_CHARGES


@<TRIPOS>ATOM
   1 C1             1.2035    -0.6781    -0.0260 C.ar    
   2 C2            -0.0038     0.0058    -0.0033 C.ar    
   3 C3            -0.0161     1.3881     0.0140 C.ar    
   4 C4             1.1742     2.0921     0.0092 C.ar    
   5 C5             2.3833     1.4122    -0.0135 C.ar    
   6 C6             2.3977     0.0258    -0.0309 C.ar    
   7 O7             1.2151    -2.0369    -0.0378 O.3     
   8 O8             3.5527     2.1045    -0.0192 O.3     
   9 C9             4.7580     1.3429     0.0771 C.3     
  10 C10            5.8672     2.2159     0.6673 C.3     
  11 C11            5.1719     0.8650    -1.3161 C.3     
  12 O12            6.1651     3.2826    -0.2358 O.3     
  13 C13            7.1939     4.1620     0.2227 C.3     
  14 Br14          -1.6627     2.3175     0.0437 Br      
  15 H15           -0.9344    -0.5422     0.0006 H       
  16 H16            1.1625     3.1720     0.0227 H       
  17 H17            3.3381    -0.5050    -0.0486 H       
  18 H18            1.2061    -2.4227    -0.9244 H       
  19 H19            4.5922     0.4804     0.7227 H       
  20 H20            5.5364     2.6285     1.6204 H       
  21 H21            6.7608     1.6117     0.8234 H       
  22 H22            4.3817     0.2430    -1.7366 H       
  23 H23            5.3377     1.7274    -1.9617 H       
  24 H24            6.0913     0.2840    -1.2427 H       
  25 H25            6.8907     4.6150     1.1666 H       
  26 H26            8.1151     3.5982     0.3696 H       
  27 H27            7.3606     4.9437    -0.5185 H       
@<TRIPOS>BOND
   1    1    2 ar
   2    1    6 ar
   3    1    7 1
   4    2    3 ar
   5    2   15 1
   6    3    4 ar
   7    3   14 1
   8    4    5 ar
   9    4   16 1
  10    5    6 ar
  11    5    8 1
  12    6   17 1
  13    7   18 1
  14    8    9 1
  15    9   10 1
  16    9   11 1
  17    9   19 1
  18   10   12 1
  19   10   20 1
  20   10   21 1
  21   11   22 1
  22   11   23 1
  23   11   24 1
  24   12   13 1
  25   13   25 1
  26   13   26 1
  27   13   27 1

#	End of record

