#	Name: ASD05740264
#	Creating user name:	WinNT
#	Creation time:	15. 06. 2019 21:03

#	Modifying user name:	WinNT
#	Modification time:	15. 06. 2019 21:03

#	Program:	/corina/corina34_cracker 3.40 0067  02.08.2006

@<TRIPOS>MOLECULE
ASD05740264
  68   73    0    0    0
SMALL
NO_CHARGES


@<TRIPOS>ATOM
   1 C1             1.0509    -1.0667    -0.1665 C.3     
   2 N2             0.1645    -0.3838     0.7862 N.3     
   3 C3            -1.1533    -0.8371     0.6586 C.ar    
   4 C4            -2.1495    -0.3139     1.4725 C.ar    
   5 C5            -3.4498    -0.7608     1.3463 C.ar    
   6 C6            -3.7614    -1.7335     0.4054 C.ar    
   7 C7            -2.7652    -2.2568    -0.4085 C.ar    
   8 C8            -1.4659    -1.8061    -0.2859 C.ar    
   9 N9            -5.0804    -2.1873     0.2777 N.pl3   
  10 C10           -6.1328    -1.3130     0.4670 C.ar    
  11 N11           -5.8684    -0.0248     0.6561 N.ar    
  12 N12           -7.3686    -1.7888     0.4478 N.ar    
  13 C13           -8.4062    -0.9790     0.6256 C.ar    
  14 C14           -8.1649     0.3962     0.8349 C.ar    
  15 C15           -6.8378     0.8515     0.8412 C.ar    
  16 N16           -9.6898    -1.4632     0.6069 N.am    
  17 C17          -10.7384    -0.6372     0.7868 C.2     
  18 C18          -10.5231     0.7946     1.0059 C.2     
  19 C19           -9.2455     1.2867     1.0276 C.2     
  20 C20           -9.9223    -2.8930     0.3884 C.3     
  21 O21          -11.8717    -1.0834     0.7669 O.2     
  22 C22           -9.8436    -3.6217     1.7052 C.ar    
  23 C23            0.6479    -0.5511     2.1639 C.3     
  24 C24            2.0599     0.0278     2.2800 C.3     
  25 N25            2.9464    -0.6551     1.3273 N.3     
  26 C26            2.4629    -0.4878    -0.0503 C.3     
  27 C27          -11.6773     1.7025     1.2029 C.ar    
  28 C28          -11.9522     2.6985     0.2663 C.ar    
  29 C29          -13.0285     3.5411     0.4552 C.ar    
  30 C30          -13.8338     3.3996     1.5712 C.ar    
  31 C31          -13.5661     2.4134     2.5037 C.ar    
  32 C32          -12.4963     1.5608     2.3226 C.ar    
  33 C33           -9.9151    -5.0020     1.7368 C.ar    
  34 C34           -9.8430    -5.6703     2.9444 C.ar    
  35 C35           -9.6990    -4.9585     4.1209 C.ar    
  36 C36           -9.6266    -3.5786     4.0892 C.ar    
  37 C37           -9.6943    -2.9103     2.8808 C.ar    
  38 C38          -10.0722    -5.7779     0.4544 C.3     
  39 F39          -10.2022    -7.1399     0.7464 F       
  40 F40          -11.2140    -5.3349    -0.2218 F       
  41 F41           -8.9462    -5.5792    -0.3517 F       
  42 H42            1.0752    -2.1327     0.0593 H       
  43 H43            0.6790    -0.9177    -1.1802 H       
  44 H44           -1.9071     0.4424     2.2045 H       
  45 H45           -4.2244    -0.3542     1.9795 H       
  46 H46           -3.0076    -3.0133    -1.1401 H       
  47 H47           -0.6912    -2.2130    -0.9189 H       
  48 H48           -5.2547    -3.1154     0.0564 H       
  49 H49           -6.6140     1.8964     0.9981 H       
  50 H50           -9.0662     2.3395     1.1881 H       
  51 H51          -10.9103    -3.0379    -0.0486 H       
  52 H52           -9.1641    -3.2850    -0.2896 H       
  53 H53           -0.0178    -0.0262     2.8491 H       
  54 H54            0.6676    -1.6113     2.4161 H       
  55 H55            2.0357     1.0938     2.0542 H       
  56 H56            2.4318    -0.1212     3.2937 H       
  57 H57            3.8965    -0.3283     1.4193 H       
  58 H58            3.1286    -1.0127    -0.7356 H       
  59 H59            2.4432     0.5724    -0.3026 H       
  60 H60          -11.3239     2.8104    -0.6049 H       
  61 H61          -13.2425     4.3128    -0.2694 H       
  62 H62          -14.6747     4.0619     1.7151 H       
  63 H63          -14.1982     2.3078     3.3730 H       
  64 H64          -12.2884     0.7911     3.0511 H       
  65 H65           -9.8996    -6.7485     2.9692 H       
  66 H66           -9.6433    -5.4806     5.0646 H       
  67 H67           -9.5143    -3.0225     5.0083 H       
  68 H68           -9.6377    -1.8321     2.8561 H       
@<TRIPOS>BOND
   1    1    2 1
   2    1   26 1
   3    1   42 1
   4    1   43 1
   5    2    3 1
   6    2   23 1
   7    3    4 ar
   8    3    8 ar
   9    4    5 ar
  10    4   44 1
  11    5    6 ar
  12    5   45 1
  13    6    7 ar
  14    6    9 1
  15    7    8 ar
  16    7   46 1
  17    8   47 1
  18    9   10 1
  19    9   48 1
  20   10   11 ar
  21   10   12 ar
  22   11   15 ar
  23   12   13 ar
  24   13   14 ar
  25   13   16 1
  26   14   15 ar
  27   14   19 1
  28   15   49 1
  29   16   17 am
  30   16   20 1
  31   17   18 1
  32   17   21 2
  33   18   19 2
  34   18   27 1
  35   19   50 1
  36   20   22 1
  37   20   51 1
  38   20   52 1
  39   22   33 ar
  40   22   37 ar
  41   23   24 1
  42   23   53 1
  43   23   54 1
  44   24   25 1
  45   24   55 1
  46   24   56 1
  47   25   26 1
  48   25   57 1
  49   26   58 1
  50   26   59 1
  51   27   28 ar
  52   27   32 ar
  53   28   29 ar
  54   28   60 1
  55   29   30 ar
  56   29   61 1
  57   30   31 ar
  58   30   62 1
  59   31   32 ar
  60   31   63 1
  61   32   64 1
  62   33   34 ar
  63   33   38 1
  64   34   35 ar
  65   34   65 1
  66   35   36 ar
  67   35   66 1
  68   36   37 ar
  69   36   67 1
  70   37   68 1
  71   38   39 1
  72   38   40 1
  73   38   41 1

#	End of record

