#	Name: ASD01916305
#	Creating user name:	WinNT
#	Creation time:	15. 06. 2019 20:07

#	Modifying user name:	WinNT
#	Modification time:	15. 06. 2019 20:07

#	Program:	/corina/corina34_cracker 3.40 0067  02.08.2006

@<TRIPOS>MOLECULE
ASD01916305
  46   47    0    0    0
SMALL
NO_CHARGES


@<TRIPOS>ATOM
   1 C1            -0.0167     1.3816     0.0096 C.ar    
   2 C2             0.0021    -0.0041     0.0020 C.ar    
   3 C3             1.2064    -0.6809    -0.0132 C.ar    
   4 C4             2.4058     0.0358    -0.0208 C.ar    
   5 C5             2.3775     1.4335    -0.0130 C.ar    
   6 C6             1.1683     2.0961     0.0022 C.ar    
   7 F7            -1.1593    -0.6943     0.0099 F       
   8 C8             3.6583    -0.6581    -0.0361 C.1     
   9 C9             4.6852    -1.2271    -0.0486 C.1     
  10 C10            5.9377    -1.9210    -0.0638 C.ar    
  11 C11            7.1448    -1.2091    -0.0716 C.ar    
  12 N12            8.2948    -1.8413    -0.0856 N.ar    
  13 C13            8.3645    -3.1682    -0.0925 C.ar    
  14 C14            7.2063    -3.9468    -0.0850 C.ar    
  15 C15            5.9742    -3.3227    -0.0654 C.ar    
  16 C16            9.6877    -3.8291    -0.1087 C.2     
  17 O17            9.7610    -5.0424    -0.1151 O.2     
  18 N18           10.8121    -3.0860    -0.1164 N.am    
  19 C19           12.1226    -3.7406    -0.1325 C.3     
  20 C20           13.1570    -2.7961    -0.7481 C.3     
  21 O21           13.3164    -1.6514     0.0924 O.3     
  22 C22           14.4969    -3.5229    -0.8795 C.3     
  23 C23           12.6807    -2.3503    -2.1320 C.3     
  24 C24           12.5370    -4.0877     1.2988 C.3     
  25 C25            4.7006    -4.1284    -0.0563 C.3     
  26 H26           -0.9607     1.9063     0.0170 H       
  27 H27            1.2208    -1.7608    -0.0187 H       
  28 H28            3.3011     1.9933    -0.0185 H       
  29 H29            1.1460     3.1759     0.0078 H       
  30 H30            7.1285    -0.1292    -0.0664 H       
  31 H31            7.2726    -5.0247    -0.0910 H       
  32 H32           10.7536    -2.1178    -0.1113 H       
  33 H33           12.0656    -4.6533    -0.7257 H       
  34 H34           12.5049    -1.1414     0.2205 H       
  35 H35           14.3752    -4.3960    -1.5206 H       
  36 H36           15.2338    -2.8500    -1.3181 H       
  37 H37           14.8362    -3.8405     0.1064 H       
  38 H38           11.7261    -1.8325    -2.0384 H       
  39 H39           13.4175    -1.6774    -2.5705 H       
  40 H40           12.5590    -3.2234    -2.7731 H       
  41 H41           13.5121    -4.5747     1.2868 H       
  42 H42           12.5940    -3.1750     1.8920 H       
  43 H43           11.8001    -4.7606     1.7373 H       
  44 H44            4.4059    -4.3306     0.9734 H       
  45 H45            3.9117    -3.5665    -0.5564 H       
  46 H46            4.8631    -5.0707    -0.5795 H       
@<TRIPOS>BOND
   1    1    2 ar
   2    1    6 ar
   3    1   26 1
   4    2    3 ar
   5    2    7 1
   6    3    4 ar
   7    3   27 1
   8    4    5 ar
   9    4    8 1
  10    5    6 ar
  11    5   28 1
  12    6   29 1
  13    8    9 3
  14    9   10 1
  15   10   11 ar
  16   10   15 ar
  17   11   12 ar
  18   11   30 1
  19   12   13 ar
  20   13   14 ar
  21   13   16 1
  22   14   15 ar
  23   14   31 1
  24   15   25 1
  25   16   17 2
  26   16   18 am
  27   18   19 1
  28   18   32 1
  29   19   20 1
  30   19   24 1
  31   19   33 1
  32   20   21 1
  33   20   22 1
  34   20   23 1
  35   21   34 1
  36   22   35 1
  37   22   36 1
  38   22   37 1
  39   23   38 1
  40   23   39 1
  41   23   40 1
  42   24   41 1
  43   24   42 1
  44   24   43 1
  45   25   44 1
  46   25   45 1
  47   25   46 1

#	End of record

