#	Name: ASD03090531
#	Creating user name:	WinNT
#	Creation time:	15. 06. 2019 20:29

#	Modifying user name:	WinNT
#	Modification time:	15. 06. 2019 20:29

#	Program:	/corina/corina34_cracker 3.40 0067  02.08.2006

@<TRIPOS>MOLECULE
ASD03090531
  44   47    0    0    0
SMALL
NO_CHARGES


@<TRIPOS>ATOM
   1 C1            -0.2148     1.4972    -0.5639 C.2     
   2 C2            -0.2078    -0.0098    -0.5678 C.3     
   3 O3             0.7078     2.1092    -1.0593 O.2     
   4 N4            -1.2489     2.1648    -0.0149 N.am    
   5 N5             4.6025    -1.8593    -2.8410 N.pl3   
   6 C6             5.3853    -1.9146    -1.7201 C.2     
   7 C7             4.6788    -1.5209    -0.6487 C.2     
   8 C8             3.3336    -1.1860    -1.1223 C.ar    
   9 C9             2.1715    -0.7271    -0.4990 C.ar    
  10 C10            1.0463    -0.5045    -1.2413 C.ar    
  11 C11            1.0488    -0.7309    -2.6111 C.ar    
  12 C12            2.1841    -1.1839    -3.2461 C.ar    
  13 C13            3.3413    -1.4173    -2.5098 C.ar    
  14 C14           -1.2028     3.5608     0.0940 C.ar    
  15 C15           -2.3660     4.3068    -0.0418 C.ar    
  16 C16           -2.3199     5.6826     0.0656 C.ar    
  17 C17           -1.1116     6.3197     0.3091 C.ar    
  18 C18            0.0510     5.5747     0.4448 C.ar    
  19 C19            0.0052     4.1984     0.3434 C.ar    
  20 O20           -1.0668     7.6744     0.4142 O.3     
  21 C21           -1.6922     8.2531     1.4727 C.ar    
  22 C22           -2.2477     7.4626     2.4687 C.ar    
  23 C23           -2.8833     8.0540     3.5443 C.ar    
  24 C24           -2.9656     9.4332     3.6276 C.ar    
  25 C25           -2.4127    10.2219     2.6362 C.ar    
  26 C26           -1.7714     9.6354     1.5621 C.ar    
  27 Cl27          -3.5793     7.0665     4.7909 Cl      
  28 H28           -0.2377    -0.3760     0.4584 H       
  29 H29           -1.0798    -0.3758    -1.1098 H       
  30 H30           -2.0251     1.6788     0.3049 H       
  31 H31            4.8940    -2.0927    -3.7363 H       
  32 H32            6.4183    -2.2289    -1.7002 H       
  33 H33            5.0346    -1.4621     0.3693 H       
  34 H34            2.1618    -0.5497     0.5663 H       
  35 H35            0.1516    -0.5503    -3.1844 H       
  36 H36            2.1760    -1.3574    -4.3121 H       
  37 H37           -3.3065     3.8111    -0.2317 H       
  38 H38           -3.2246     6.2630    -0.0404 H       
  39 H39            0.9913     6.0711     0.6340 H       
  40 H40            0.9095     3.6183     0.4539 H       
  41 H41           -2.1838     6.3865     2.4034 H       
  42 H42           -3.4629     9.8938     4.4684 H       
  43 H43           -2.4782    11.2978     2.7035 H       
  44 H44           -1.3355    10.2526     0.7904 H       
@<TRIPOS>BOND
   1    1    2 1
   2    1    3 2
   3    1    4 am
   4    2   10 1
   5    2   28 1
   6    2   29 1
   7    4   14 1
   8    4   30 1
   9    5    6 1
  10    5   13 1
  11    5   31 1
  12    6    7 2
  13    6   32 1
  14    7    8 1
  15    7   33 1
  16    8    9 ar
  17    8   13 ar
  18    9   10 ar
  19    9   34 1
  20   10   11 ar
  21   11   12 ar
  22   11   35 1
  23   12   13 ar
  24   12   36 1
  25   14   15 ar
  26   14   19 ar
  27   15   16 ar
  28   15   37 1
  29   16   17 ar
  30   16   38 1
  31   17   18 ar
  32   17   20 1
  33   18   19 ar
  34   18   39 1
  35   19   40 1
  36   20   21 1
  37   21   22 ar
  38   21   26 ar
  39   22   23 ar
  40   22   41 1
  41   23   24 ar
  42   23   27 1
  43   24   25 ar
  44   24   42 1
  45   25   26 ar
  46   25   43 1
  47   26   44 1

#	End of record

