#	Name: ASD01001272
#	Creating user name:	WinNT
#	Creation time:	15. 06. 2019 18:55

#	Modifying user name:	WinNT
#	Modification time:	15. 06. 2019 18:55

#	Program:	/corina/corina34_cracker 3.40 0067  02.08.2006

@<TRIPOS>MOLECULE
ASD01001272
  54   57    0    0    0
SMALL
NO_CHARGES


@<TRIPOS>ATOM
   1 C1            -0.0121     1.4566    -0.0117 C.3     
   2 C2             0.0368    -0.0499     0.1486 C.2     
   3 N3            -0.6131    -0.3152     1.2990 N.am    
   4 C4            -1.0611     0.8027     1.8818 C.2     
   5 N5            -0.7534     1.9076     1.1787 N.am    
   6 C6             1.4010     2.0432    -0.0200 C.3     
   7 C7             2.1282     1.5842    -1.2576 C.2     
   8 O8             1.5349     0.9638    -2.1145 O.2     
   9 O9             0.5527    -0.8499    -0.6023 O.2     
  10 N10            3.4377     1.8630    -1.4122 N.am    
  11 C11            4.0898     1.5239    -2.6041 C.ar    
  12 C12            5.0884     2.3463    -3.1085 C.ar    
  13 C13            5.7303     2.0101    -4.2842 C.ar    
  14 C14            5.3786     0.8537    -4.9600 C.ar    
  15 C15            4.3830     0.0322    -4.4587 C.ar    
  16 C16            3.7426     0.3619    -3.2802 C.ar    
  17 F17            6.0074     0.5268    -6.1102 F       
  18 S18           -1.9286     0.8247     3.3575 S.2     
  19 C19           -0.7976    -1.6032     1.8203 C.ar    
  20 C20           -0.1924    -1.9626     3.0169 C.ar    
  21 C21           -0.3764    -3.2324     3.5283 C.ar    
  22 C22           -1.1621    -4.1454     2.8494 C.ar    
  23 C23           -1.7662    -3.7904     1.6572 C.ar    
  24 C24           -1.5906    -2.5203     1.1438 C.ar    
  25 C25           -1.0896     3.2899     1.5289 C.3     
  26 C26           -0.0312     3.8459     2.4837 C.3     
  27 C27           -0.3770     5.2678     2.8439 C.2     
  28 S28            0.1549     6.6947     1.9639 S.3     
  29 C29           -0.7061     7.7429     3.0835 C.2     
  30 C30           -1.3155     7.0025     4.0107 C.2     
  31 C31           -1.1380     5.6363     3.8755 C.2     
  32 C32           -1.7502     4.6413     4.8274 C.3     
  33 H33           -0.5441     1.7282    -0.9234 H       
  34 H34            1.3426     3.1316    -0.0156 H       
  35 H35            1.9402     1.7047     0.8647 H       
  36 H36            3.9284     2.2985    -0.6978 H       
  37 H37            5.3627     3.2485    -2.5819 H       
  38 H38            6.5068     2.6497    -4.6771 H       
  39 H39            4.1099    -0.8691    -4.9874 H       
  40 H40            2.9661    -0.2791    -2.8895 H       
  41 H41            0.4220    -1.2501     3.5473 H       
  42 H42            0.0942    -3.5125     4.4592 H       
  43 H43           -1.3040    -5.1380     3.2508 H       
  44 H44           -2.3791    -4.5058     1.1290 H       
  45 H45           -2.0630    -2.2435     0.2129 H       
  46 H46           -1.1178     3.8973     0.6242 H       
  47 H47           -2.0654     3.3147     2.0139 H       
  48 H48           -0.0029     3.2385     3.3883 H       
  49 H49            0.9446     3.8210     1.9987 H       
  50 H50           -0.7363     8.8211     3.0289 H       
  51 H51           -1.9060     7.4358     4.8044 H       
  52 H52           -2.7365     4.3513     4.4652 H       
  53 H53           -1.1127     3.7594     4.8908 H       
  54 H54           -1.8442     5.0934     5.8148 H       
@<TRIPOS>BOND
   1    1    2 1
   2    1    6 1
   3    1    5 1
   4    1   33 1
   5    2    3 am
   6    2    9 2
   7    3    4 am
   8    3   19 1
   9    4    5 am
  10    4   18 2
  11    5   25 1
  12    6    7 1
  13    6   34 1
  14    6   35 1
  15    7    8 2
  16    7   10 am
  17   10   11 1
  18   10   36 1
  19   11   12 ar
  20   11   16 ar
  21   12   13 ar
  22   12   37 1
  23   13   14 ar
  24   13   38 1
  25   14   15 ar
  26   14   17 1
  27   15   16 ar
  28   15   39 1
  29   16   40 1
  30   19   20 ar
  31   19   24 ar
  32   20   21 ar
  33   20   41 1
  34   21   22 ar
  35   21   42 1
  36   22   23 ar
  37   22   43 1
  38   23   24 ar
  39   23   44 1
  40   24   45 1
  41   25   26 1
  42   25   46 1
  43   25   47 1
  44   26   27 1
  45   26   48 1
  46   26   49 1
  47   27   28 1
  48   27   31 2
  49   28   29 1
  50   29   30 2
  51   29   50 1
  52   30   31 1
  53   30   51 1
  54   31   32 1
  55   32   52 1
  56   32   53 1
  57   32   54 1

#	End of record

