#	Name: ASD04882265
#	Creating user name:	WinNT
#	Creation time:	15. 06. 2019 20:54

#	Modifying user name:	WinNT
#	Modification time:	15. 06. 2019 20:54

#	Program:	/corina/corina34_cracker 3.40 0067  02.08.2006

@<TRIPOS>MOLECULE
ASD04882265
  83   88    0    0    0
SMALL
NO_CHARGES


@<TRIPOS>ATOM
   1 N1            -0.1359     1.5549    -0.0366 N.am    
   2 C2            -0.0762     0.1550    -0.0459 C.ar    
   3 C3            -1.2526    -0.5957     0.0296 C.ar    
   4 C4            -1.1949    -1.9847     0.0209 C.ar    
   5 C5             0.0211    -2.6259    -0.0622 C.ar    
   6 C6             1.2015    -1.8812    -0.1380 C.ar    
   7 C7             1.1457    -0.4845    -0.1356 C.ar    
   8 N8            -2.4843     0.0484     0.1142 N.3     
   9 C9            -2.6114     0.7772     1.3839 C.3     
  10 C10           -3.5899    -0.9047    -0.0556 C.3     
  11 C11           -4.9200    -0.1478    -0.0358 C.3     
  12 N12           -5.0470     0.5809     1.2340 N.3     
  13 C13           -3.9415     1.5341     1.4037 C.3     
  14 C14            2.5040    -2.5682    -0.2260 C.2     
  15 O15            3.5304    -1.9195    -0.2920 O.2     
  16 C16           -6.2825     1.2271     1.3188 C.ar    
  17 C17           -7.1955     0.8576     2.2986 C.ar    
  18 C18            0.8460     2.2673     0.5506 C.2     
  19 C19            0.8492     3.7381     0.4524 C.2     
  20 O20            1.7295     1.6967     1.1615 O.2     
  21 C21            1.7708     4.5824     0.9910 C.2     
  22 N22           -0.0655     4.5068    -0.1986 N.2     
  23 C23            0.2728     5.7539    -0.0622 C.2     
  24 O24            1.3969     5.8299     0.6642 O.3     
  25 N25            2.5564    -3.9150    -0.2334 N.am    
  26 C26            3.8498    -4.5973    -0.3208 C.3     
  27 C27            3.6295    -6.1113    -0.3106 C.3     
  28 C28           -0.4778     6.9291    -0.6336 C.3     
  29 C29            4.9804    -6.8239    -0.4019 C.3     
  30 N30            4.7694    -8.2736    -0.3922 N.am    
  31 C31            4.7276    -9.0265     0.7206 C.2     
  32 C32           -8.4158     1.4988     2.3799 C.ar    
  33 C33           -8.7297     2.5074     1.4871 C.ar    
  34 C34           -7.8233     2.8775     0.5108 C.ar    
  35 C35           -6.5986     2.2442     0.4274 C.ar    
  36 C36           -6.8548    -0.2419     3.2712 C.3     
  37 C37           -4.0952     2.2612     2.7411 C.3     
  38 C38           -1.0156     7.9699     0.3505 C.3     
  39 C39            0.1846     8.3049    -0.5373 C.3     
  40 C40            4.5703    -9.0895    -1.5957 C.3     
  41 C41            3.9679   -10.4213    -1.0958 C.3     
  42 C42            4.4839   -10.4752     0.3597 C.3     
  43 O43            4.8659    -8.6056     1.8496 O.2     
  44 H44           -0.8819     2.0113    -0.4561 H       
  45 H45           -2.1056    -2.5622     0.0797 H       
  46 H46            0.0628    -3.7051    -0.0684 H       
  47 H47            2.0561     0.0935    -0.1944 H       
  48 H48           -2.5827     0.0705     2.2133 H       
  49 H49           -1.7885     1.4855     1.4807 H       
  50 H50           -3.4804    -1.4227    -1.0084 H       
  51 H51           -3.5723    -1.6305     0.7574 H       
  52 H52           -4.9486     0.5589    -0.8652 H       
  53 H53           -5.7429    -0.8561    -0.1325 H       
  54 H54           -3.9590     2.2599     0.5907 H       
  55 H55            2.6378     4.3024     1.5709 H       
  56 H56            1.7376    -4.4325    -0.1808 H       
  57 H57            4.3508    -4.3092    -1.2450 H       
  58 H58            4.4682    -4.3144     0.5311 H       
  59 H59            3.1285    -6.3993     0.6136 H       
  60 H60            3.0112    -6.3942    -1.1625 H       
  61 H61           -1.0756     6.7189    -1.5205 H       
  62 H62            5.4814    -6.5358    -1.3261 H       
  63 H63            5.5987    -6.5410     0.4500 H       
  64 H64           -9.1260     1.2121     3.1414 H       
  65 H65           -9.6850     3.0068     1.5525 H       
  66 H66           -8.0715     3.6655    -0.1848 H       
  67 H67           -5.8909     2.5341    -0.3352 H       
  68 H68           -6.3655     0.1858     4.1463 H       
  69 H69           -7.7682    -0.7513     3.5783 H       
  70 H70           -6.1842    -0.9555     2.7925 H       
  71 H71           -4.0766     1.5349     3.5538 H       
  72 H72           -3.2750     2.9681     2.8668 H       
  73 H73           -5.0434     2.7985     2.7557 H       
  74 H74           -1.9671     8.4447     0.1108 H       
  75 H75           -0.8265     7.8046     1.4111 H       
  76 H76            1.1633     8.3600    -0.0608 H       
  77 H77            0.0227     9.0001    -1.3611 H       
  78 H78            3.8780    -8.5945    -2.2767 H       
  79 H79            5.5242    -9.2696    -2.0914 H       
  80 H80            2.8786   -10.3901    -1.1200 H       
  81 H81            4.3456   -11.2627    -1.6767 H       
  82 H82            5.4123   -11.0437     0.4145 H       
  83 H83            3.7300   -10.9101     1.0159 H       
@<TRIPOS>BOND
   1    1    2 1
   2    1   18 am
   3    1   44 1
   4    2    3 ar
   5    2    7 ar
   6    3    4 ar
   7    3    8 1
   8    4    5 ar
   9    4   45 1
  10    5    6 ar
  11    5   46 1
  12    6    7 ar
  13    6   14 1
  14    7   47 1
  15    8    9 1
  16    8   10 1
  17    9   13 1
  18    9   48 1
  19    9   49 1
  20   10   11 1
  21   10   50 1
  22   10   51 1
  23   11   12 1
  24   11   52 1
  25   11   53 1
  26   12   13 1
  27   12   16 1
  28   13   37 1
  29   13   54 1
  30   14   15 2
  31   14   25 am
  32   16   17 ar
  33   16   35 ar
  34   17   32 ar
  35   17   36 1
  36   18   20 2
  37   18   19 1
  38   19   21 2
  39   19   22 1
  40   21   24 1
  41   21   55 1
  42   22   23 2
  43   23   24 1
  44   23   28 1
  45   25   26 1
  46   25   56 1
  47   26   27 1
  48   26   57 1
  49   26   58 1
  50   27   29 1
  51   27   59 1
  52   27   60 1
  53   28   38 1
  54   28   39 1
  55   28   61 1
  56   29   30 1
  57   29   62 1
  58   29   63 1
  59   30   40 1
  60   30   31 am
  61   31   43 2
  62   31   42 1
  63   32   33 ar
  64   32   64 1
  65   33   34 ar
  66   33   65 1
  67   34   35 ar
  68   34   66 1
  69   35   67 1
  70   36   68 1
  71   36   69 1
  72   36   70 1
  73   37   71 1
  74   37   72 1
  75   37   73 1
  76   38   39 1
  77   38   74 1
  78   38   75 1
  79   39   76 1
  80   39   77 1
  81   40   41 1
  82   40   78 1
  83   40   79 1
  84   41   42 1
  85   41   80 1
  86   41   81 1
  87   42   82 1
  88   42   83 1

#	End of record

