#	Name: ASD03731749
#	Creating user name:	WinNT
#	Creation time:	15. 06. 2019 20:46

#	Modifying user name:	WinNT
#	Modification time:	15. 06. 2019 20:46

#	Program:	/corina/corina34_cracker 3.40 0067  02.08.2006

@<TRIPOS>MOLECULE
ASD03731749
  37   38    0    0    0
SMALL
NO_CHARGES


@<TRIPOS>ATOM
   1 C1            -0.7956     1.3891     0.4229 C.2     
   2 C2            -0.5707    -0.0649     0.3061 C.ar    
   3 C3             0.5774    -0.5475    -0.3278 C.ar    
   4 C4             0.7838    -1.9047    -0.4344 C.ar    
   5 C5            -0.1484    -2.7945     0.0872 C.ar    
   6 C6            -1.2919    -2.3182     0.7185 C.ar    
   7 C7            -1.5026    -0.9625     0.8341 C.ar    
   8 O8             0.0187     2.1687    -0.0327 O.2     
   9 N9            -1.9062     1.8527     1.0296 N.am    
  10 O10            0.0581    -4.1312    -0.0206 O.3     
  11 C11           -0.4512    -4.7702    -1.1074 C.ar    
  12 C12           -0.3654    -6.1563    -1.2055 C.ar    
  13 C13           -0.8858    -6.8025    -2.3149 C.ar    
  14 C14           -1.4887    -6.0710    -3.3216 C.ar    
  15 C15           -1.5735    -4.6948    -3.2245 C.ar    
  16 C16           -1.0617    -4.0439    -2.1171 C.ar    
  17 O17            0.2282    -6.8742    -0.2149 O.3     
  18 C18            0.2802    -8.2923    -0.3831 C.3     
  19 F19            0.9928    -8.5979    -1.5476 F       
  20 F20            0.9190    -8.8696     0.7196 F       
  21 F21           -1.0203    -8.7977    -0.4860 F       
  22 S22           -2.1584     3.4841     1.1607 S.o2    
  23 O23           -3.3884     3.5931     1.8639 O.2     
  24 O24           -0.9496     3.9820     1.7176 O.2     
  25 C25           -2.3516     4.0513    -0.5515 C.3     
  26 H26            1.3016     0.1431    -0.7339 H       
  27 H27            1.6709    -2.2784    -0.9241 H       
  28 H28           -2.0138    -3.0126     1.1224 H       
  29 H29           -2.3891    -0.5932     1.3283 H       
  30 H30           -2.5577     1.2307     1.3896 H       
  31 H31           -0.8203    -7.8776    -2.3936 H       
  32 H32           -1.8940    -6.5761    -4.1859 H       
  33 H33           -2.0449    -4.1271    -4.0131 H       
  34 H34           -1.1336    -2.9689    -2.0415 H       
  35 H35           -3.2009     3.5437    -1.0088 H       
  36 H36           -2.5237     5.1276    -0.5605 H       
  37 H37           -1.4462     3.8234    -1.1140 H       
@<TRIPOS>BOND
   1    1    2 1
   2    1    8 2
   3    1    9 am
   4    2    3 ar
   5    2    7 ar
   6    3    4 ar
   7    3   26 1
   8    4    5 ar
   9    4   27 1
  10    5    6 ar
  11    5   10 1
  12    6    7 ar
  13    6   28 1
  14    7   29 1
  15    9   22 am
  16    9   30 1
  17   10   11 1
  18   11   12 ar
  19   11   16 ar
  20   12   13 ar
  21   12   17 1
  22   13   14 ar
  23   13   31 1
  24   14   15 ar
  25   14   32 1
  26   15   16 ar
  27   15   33 1
  28   16   34 1
  29   17   18 1
  30   18   19 1
  31   18   20 1
  32   18   21 1
  33   22   23 2
  34   22   24 2
  35   22   25 1
  36   25   35 1
  37   25   36 1
  38   25   37 1

#	End of record

