#	Name: ASD03320095
#	Creating user name:	WinNT
#	Creation time:	15. 06. 2019 20:36

#	Modifying user name:	WinNT
#	Modification time:	15. 06. 2019 20:36

#	Program:	/corina/corina34_cracker 3.40 0067  02.08.2006

@<TRIPOS>MOLECULE
ASD03320095
  52   55    0    0    0
SMALL
NO_CHARGES


@<TRIPOS>ATOM
   1 C1            -0.0191     1.4693     0.0337 C.2     
   2 C2            -0.0015    -0.0060     0.0382 C.ar    
   3 C3             1.2153    -0.7010     0.0474 C.ar    
   4 C4             1.1793    -2.0925     0.0518 C.ar    
   5 C5            -0.0681    -2.7416     0.0470 C.ar    
   6 N6            -1.1938    -2.0439     0.0379 N.ar    
   7 C7            -1.1972    -0.7273     0.0393 C.ar    
   8 O8             1.0267     2.0899     0.0379 O.2     
   9 N9            -1.1942     2.1292     0.0193 N.am    
  10 C10           -1.2149     3.5249     0.1327 C.ar    
  11 C11           -0.2670     4.1726     0.9142 C.ar    
  12 C12           -0.2878     5.5486     1.0252 C.ar    
  13 C13           -1.2556     6.2843     0.3565 C.ar    
  14 C14           -2.2026     5.6381    -0.4243 C.ar    
  15 C15           -2.1796     4.2621    -0.5408 C.ar    
  16 O16           -1.2760     7.6394     0.4669 O.3     
  17 C17           -0.2714     8.2386     1.2877 C.3     
  18 F18            0.9940     7.9216     0.7822 F       
  19 F19           -0.4382     9.6276     1.2898 F       
  20 F20           -0.3864     7.7531     2.5948 F       
  21 N21            2.6691    -4.0153     0.7714 N.pl3   
  22 N22            3.9778    -4.4292     0.4919 N.2     
  23 C23            4.5117    -3.5803    -0.3492 C.2     
  24 C24            3.5710    -2.5925    -0.6416 C.2     
  25 C25            2.4336    -2.8761     0.0610 C.2     
  26 N26           -0.1199    -4.1232     0.0513 N.3     
  27 C27           -1.5152    -4.5997     0.0451 C.3     
  28 C28           -1.6798    -5.5165    -1.1853 C.3     
  29 C29           -0.2244    -5.9612    -1.4870 C.3     
  30 C30            0.5740    -4.6832    -1.1280 C.3     
  31 O31           -2.4976    -6.6448    -0.8689 O.3     
  32 C32           -3.2048     3.5607    -1.3940 C.3     
  33 H33            2.1563    -0.1709     0.0505 H       
  34 H34           -2.1383    -0.1974     0.0368 H       
  35 H35           -2.0255     1.6374    -0.0696 H       
  36 H36            0.4860     3.6000     1.4354 H       
  37 H37            0.4492     6.0524     1.6329 H       
  38 H38           -2.9556     6.2114    -0.9445 H       
  39 H39            2.0417    -4.4615     1.3614 H       
  40 H40            5.5132    -3.6351    -0.7496 H       
  41 H41            3.7160    -1.7526    -1.3050 H       
  42 H42           -1.7192    -5.1619     0.9563 H       
  43 H43           -2.1962    -3.7519    -0.0304 H       
  44 H44           -2.0954    -4.9617    -2.0265 H       
  45 H45            0.0685    -6.7962    -0.8506 H       
  46 H46           -0.1038    -6.2139    -2.5404 H       
  47 H47            0.5478    -3.9744    -1.9557 H       
  48 H48            1.6039    -4.9371    -0.8771 H       
  49 H49           -2.6323    -7.2528    -1.6087 H       
  50 H50           -4.0767     3.3164    -0.7872 H       
  51 H51           -3.5040     4.2142    -2.2134 H       
  52 H52           -2.7752     2.6442    -1.7985 H       
@<TRIPOS>BOND
   1    1    2 1
   2    1    8 2
   3    1    9 am
   4    2    3 ar
   5    2    7 ar
   6    3    4 ar
   7    3   33 1
   8    4    5 ar
   9    4   25 1
  10    5    6 ar
  11    5   26 1
  12    6    7 ar
  13    7   34 1
  14    9   10 1
  15    9   35 1
  16   10   11 ar
  17   10   15 ar
  18   11   12 ar
  19   11   36 1
  20   12   13 ar
  21   12   37 1
  22   13   14 ar
  23   13   16 1
  24   14   15 ar
  25   14   38 1
  26   15   32 1
  27   16   17 1
  28   17   18 1
  29   17   19 1
  30   17   20 1
  31   21   22 1
  32   21   25 1
  33   21   39 1
  34   22   23 2
  35   23   24 1
  36   23   40 1
  37   24   25 2
  38   24   41 1
  39   26   27 1
  40   26   30 1
  41   27   28 1
  42   27   42 1
  43   27   43 1
  44   28   29 1
  45   28   31 1
  46   28   44 1
  47   29   30 1
  48   29   45 1
  49   29   46 1
  50   30   47 1
  51   30   48 1
  52   31   49 1
  53   32   50 1
  54   32   51 1
  55   32   52 1

#	End of record

