#	Name: ASD03430570
#	Creating user name:	WinNT
#	Creation time:	15. 06. 2019 20:41

#	Modifying user name:	WinNT
#	Modification time:	15. 06. 2019 20:41

#	Program:	/corina/corina34_cracker 3.40 0067  02.08.2006

@<TRIPOS>MOLECULE
ASD03430570
  38   41    0    0    0
SMALL
NO_CHARGES


@<TRIPOS>ATOM
   1 N1            -0.7249     0.9644     0.2662 N.am    
   2 C2            -0.5836    -0.3696     0.3410 C.2     
   3 C3             0.8720    -0.6800     0.0641 C.3     
   4 C4             1.4992     0.6751    -0.1708 C.ar    
   5 C5             2.7846     1.0724    -0.4666 C.ar    
   6 C6             3.0742     2.4194    -0.6301 C.ar    
   7 C7             2.0619     3.3632    -0.4974 C.ar    
   8 C8             0.7712     2.9591    -0.1996 C.ar    
   9 C9             0.4793     1.6074    -0.0329 C.ar    
  10 O10            4.3502     2.7992    -0.9147 O.3     
  11 O11            2.3234     4.6895    -0.6613 O.3     
  12 C12            3.6960     5.0891    -0.5854 C.3     
  13 C13            4.5268     4.1204    -1.4377 C.3     
  14 O14           -1.4579    -1.1741     0.5848 O.2     
  15 C15            1.5035    -1.3547     1.2545 C.ar    
  16 C16            2.1659    -2.5579     1.0962 C.ar    
  17 C17            2.7450    -3.1768     2.1879 C.ar    
  18 C18            2.6623    -2.5924     3.4382 C.ar    
  19 C19            2.0009    -1.3892     3.5963 C.ar    
  20 C20            1.4253    -0.7680     2.5035 C.ar    
  21 N21            2.2544    -3.1835    -0.2423 N.pl3   
  22 O22            2.1374    -4.3902    -0.3596 O.2     
  23 O23            2.4442    -2.4916    -1.2266 O.2     
  24 C24           -1.9961     1.6639     0.4689 C.3     
  25 H25            0.9670    -1.3039    -0.8245 H       
  26 H26            3.5671     0.3354    -0.5708 H       
  27 H27           -0.0122     3.6953    -0.0953 H       
  28 H28            3.8052     6.1032    -0.9697 H       
  29 H29            4.0335     5.0497     0.4503 H       
  30 H30            5.5798     4.3976    -1.3883 H       
  31 H31            4.1851     4.1550    -2.4722 H       
  32 H32            3.2618    -4.1170     2.0644 H       
  33 H33            3.1143    -3.0764     4.2914 H       
  34 H34            1.9360    -0.9329     4.5730 H       
  35 H35            0.9117     0.1741     2.6263 H       
  36 H36           -2.7801     0.9377     0.6839 H       
  37 H37           -1.9011     2.3548     1.3066 H       
  38 H38           -2.2529     2.2195    -0.4330 H       
@<TRIPOS>BOND
   1    1    2 am
   2    1    9 1
   3    1   24 1
   4    2    3 1
   5    2   14 2
   6    3    4 1
   7    3   15 1
   8    3   25 1
   9    4    5 ar
  10    4    9 ar
  11    5    6 ar
  12    5   26 1
  13    6    7 ar
  14    6   10 1
  15    7    8 ar
  16    7   11 1
  17    8    9 ar
  18    8   27 1
  19   10   13 1
  20   11   12 1
  21   12   13 1
  22   12   28 1
  23   12   29 1
  24   13   30 1
  25   13   31 1
  26   15   16 ar
  27   15   20 ar
  28   16   17 ar
  29   16   21 1
  30   17   18 ar
  31   17   32 1
  32   18   19 ar
  33   18   33 1
  34   19   20 ar
  35   19   34 1
  36   20   35 1
  37   21   22 2
  38   21   23 2
  39   24   36 1
  40   24   37 1
  41   24   38 1

#	End of record

