#	Name: ASD01230208
#	Creating user name:	WinNT
#	Creation time:	15. 06. 2019 19:12

#	Modifying user name:	WinNT
#	Modification time:	15. 06. 2019 19:12

#	Program:	/corina/corina34_cracker 3.40 0067  02.08.2006

@<TRIPOS>MOLECULE
ASD01230208
  36   38    0    0    0
SMALL
NO_CHARGES


@<TRIPOS>ATOM
   1 C1             0.1248     1.1828    -0.6289 C.ar    
   2 C2             0.0342    -0.1983    -0.8534 C.ar    
   3 C3             1.1636    -0.8834    -1.3006 C.ar    
   4 C4             2.3328    -0.1651    -1.5047 C.ar    
   5 C5             2.3451     1.1955    -1.2616 C.ar    
   6 N6             1.2633     1.8226    -0.8385 N.ar    
   7 N7            -0.9900     1.8847    -0.1890 N.pl3   
   8 C8            -1.2407    -0.9183    -0.6188 C.ar    
   9 C9            -1.7565    -1.7635    -1.6003 C.ar    
  10 C10           -2.9421    -2.4321    -1.3789 C.ar    
  11 C11           -3.6221    -2.2641    -0.1801 C.ar    
  12 C12           -3.1113    -1.4227     0.7991 C.ar    
  13 C13           -1.9232    -0.7558     0.5860 C.ar    
  14 O14           -4.7902    -2.9243     0.0350 O.3     
  15 C15           -4.7288    -4.2454     0.3373 C.ar    
  16 C16           -5.9026    -4.9789     0.4581 C.ar    
  17 C17           -5.8261    -6.3256     0.7668 C.ar    
  18 C18           -4.5720    -6.8940     0.9446 C.ar    
  19 C19           -3.4474    -6.1048     0.8092 C.ar    
  20 N20           -3.5519    -4.8242     0.5089 N.ar    
  21 C21           -7.0756    -7.1563     0.9072 C.3     
  22 F22           -7.4128    -7.7051    -0.3347 F       
  23 F23           -6.8499    -8.1864     1.8265 F       
  24 F24           -8.1242    -6.3484     1.3602 F       
  25 Cl25           3.7681    -0.9683    -2.0602 Cl      
  26 H26            1.1290    -1.9473    -1.4832 H       
  27 H27            3.2553     1.7550    -1.4201 H       
  28 H28           -1.8276     1.4194    -0.0381 H       
  29 H29           -0.9309     2.8402    -0.0327 H       
  30 H30           -1.2281    -1.8943    -2.5331 H       
  31 H31           -3.3423    -3.0867    -2.1390 H       
  32 H32           -3.6430    -1.2936     1.7303 H       
  33 H33           -1.5239    -0.1052     1.3500 H       
  34 H34           -6.8618    -4.5042     0.3135 H       
  35 H35           -4.4772    -7.9423     1.1866 H       
  36 H36           -2.4695    -6.5421     0.9468 H       
@<TRIPOS>BOND
   1    1    2 ar
   2    1    6 ar
   3    1    7 1
   4    2    3 ar
   5    2    8 1
   6    3    4 ar
   7    3   26 1
   8    4    5 ar
   9    4   25 1
  10    5    6 ar
  11    5   27 1
  12    7   28 1
  13    7   29 1
  14    8    9 ar
  15    8   13 ar
  16    9   10 ar
  17    9   30 1
  18   10   11 ar
  19   10   31 1
  20   11   12 ar
  21   11   14 1
  22   12   13 ar
  23   12   32 1
  24   13   33 1
  25   14   15 1
  26   15   16 ar
  27   15   20 ar
  28   16   17 ar
  29   16   34 1
  30   17   18 ar
  31   17   21 1
  32   18   19 ar
  33   18   35 1
  34   19   20 ar
  35   19   36 1
  36   21   22 1
  37   21   23 1
  38   21   24 1

#	End of record

