#	Name: ASD01948249
#	Creating user name:	WinNT
#	Creation time:	15. 06. 2019 20:14

#	Modifying user name:	WinNT
#	Modification time:	15. 06. 2019 20:14

#	Program:	/corina/corina34_cracker 3.40 0067  02.08.2006

@<TRIPOS>MOLECULE
ASD01948249
  42   44    0    0    0
SMALL
NO_CHARGES


@<TRIPOS>ATOM
   1 C1            -0.7094     3.1283     1.0474 C.ar    
   2 C2            -1.4696     4.0765     0.3856 C.ar    
   3 C3            -0.8614     5.1793    -0.1857 C.ar    
   4 C4             0.5084     5.3385    -0.0979 C.ar    
   5 C5             1.2754     4.3900     0.5650 C.ar    
   6 C6             0.6613     3.2811     1.1392 C.ar    
   7 C7             2.9858     3.0934    -1.2509 C.ar    
   8 C8             3.5094     3.7833    -0.1597 C.ar    
   9 N9             2.6617     4.5483     0.6551 N.pl3   
  10 C10            3.8107     2.3375    -2.0588 C.ar    
  11 C11            5.1793     2.2631    -1.7815 C.ar    
  12 C12            5.7071     2.9573    -0.6834 C.ar    
  13 C13            4.8685     3.7164     0.1252 C.ar    
  14 N14            5.3923     4.4126     1.2257 N.am    
  15 I15           -3.5468     3.8406     0.2483 I       
  16 F16            3.2969     1.6704    -3.1153 F       
  17 F17            1.4035     2.3557     1.7856 F       
  18 F18            1.6629     3.1601    -1.5163 F       
  19 O19            7.0342     2.6967    -0.6737 O.3     
  20 C20            7.3087     1.8867    -1.7089 C.2     
  21 N21            6.2245     1.6214    -2.3727 N.2     
  22 S22            7.0314     4.5713     1.4012 S.o2    
  23 N23            7.5922     5.3722     0.0646 N.am    
  24 O24            7.2342     5.4424     2.5054 O.2     
  25 O25            7.5707     3.2582     1.3378 O.2     
  26 C26            7.1860     6.7577    -0.1831 C.3     
  27 C27            8.4946     4.6951    -0.8700 C.3     
  28 C28            8.6788     1.3610    -2.0517 C.3     
  29 H29           -1.1880     2.2704     1.4964 H       
  30 H30           -1.4579     5.9170    -0.7017 H       
  31 H31            0.9820     6.2001    -0.5449 H       
  32 H32            3.0372     5.1871     1.2810 H       
  33 H33            4.7943     4.8007     1.8834 H       
  34 H34            7.8940     7.4349     0.2947 H       
  35 H35            7.1714     6.9457    -1.2567 H       
  36 H36            6.1904     6.9236     0.2283 H       
  37 H37            7.9092     4.1285    -1.5942 H       
  38 H38            9.0997     5.4362    -1.3921 H       
  39 H39            9.1461     4.0168    -0.3191 H       
  40 H40            8.8442     0.4147    -1.5367 H       
  41 H41            8.7497     1.2060    -3.1282 H       
  42 H42            9.4336     2.0821    -1.7379 H       
@<TRIPOS>BOND
   1    1    2 ar
   2    1    6 ar
   3    1   29 1
   4    2    3 ar
   5    2   15 1
   6    3    4 ar
   7    3   30 1
   8    4    5 ar
   9    4   31 1
  10    5    6 ar
  11    5    9 1
  12    6   17 1
  13    7    8 ar
  14    7   10 ar
  15    7   18 1
  16    8    9 1
  17    8   13 ar
  18    9   32 1
  19   10   11 ar
  20   10   16 1
  21   11   12 ar
  22   11   21 1
  23   12   13 ar
  24   12   19 1
  25   13   14 1
  26   14   22 am
  27   14   33 1
  28   19   20 1
  29   20   21 2
  30   20   28 1
  31   22   23 am
  32   22   24 2
  33   22   25 2
  34   23   26 1
  35   23   27 1
  36   26   34 1
  37   26   35 1
  38   26   36 1
  39   27   37 1
  40   27   38 1
  41   27   39 1
  42   28   40 1
  43   28   41 1
  44   28   42 1

#	End of record

