#	Name: ASD03430094
#	Creating user name:	WinNT
#	Creation time:	15. 06. 2019 20:40

#	Modifying user name:	WinNT
#	Modification time:	15. 06. 2019 20:40

#	Program:	/corina/corina34_cracker 3.40 0067  02.08.2006

@<TRIPOS>MOLECULE
ASD03430094
  52   57    0    0    0
SMALL
NO_CHARGES


@<TRIPOS>ATOM
   1 C1            -0.0175     1.3808     0.0091 C.ar    
   2 C2             0.0003    -0.0054     0.0031 C.ar    
   3 C3             1.2004    -0.6842    -0.0141 C.ar    
   4 C4             2.4068     0.0095    -0.0156 C.ar    
   5 C5             2.3852     1.4005    -0.0139 C.ar    
   6 C6             1.1813     2.0844    -0.0007 C.ar    
   7 O7             3.4688    -0.8462    -0.0050 O.3     
   8 C8             1.5473    -2.1485    -0.0465 C.3     
   9 C9             3.0326    -2.1504    -0.4337 C.3     
  10 C10            0.4242    -3.8594     1.0149 C.ar    
  11 C11            1.3112    -2.8204     1.2731 C.ar    
  12 C12            0.7127    -2.9104    -1.0356 C.2     
  13 N13            0.0934    -3.8867    -0.3427 N.am    
  14 O14            0.6146    -2.6900    -2.2243 O.2     
  15 C15            1.7808    -2.5976     2.5624 C.ar    
  16 C16            1.3583    -3.4239     3.6067 C.ar    
  17 C17            0.4784    -4.4550     3.3488 C.ar    
  18 C18            0.0131    -4.6751     2.0675 C.ar    
  19 C19            2.7242    -1.4904     2.8274 C.2     
  20 O20           -1.2116     2.0352     0.0188 O.3     
  21 C21           -1.1853     3.4167     0.3937 C.3     
  22 C22           -0.0337     4.0966    -0.3593 C.3     
  23 O23            1.1877     3.4460     0.0065 O.3     
  24 N24            3.9035    -1.7396     3.4304 N.am    
  25 O25            2.4362    -0.3553     2.5014 O.2     
  26 C26           -0.8191    -4.8631    -0.9428 C.3     
  27 C27            4.9722    -0.7568     3.6618 C.3     
  28 C28            6.1342    -1.4983     4.3556 C.3     
  29 C29            5.8829    -2.9792     3.9667 C.3     
  30 C30            4.3329    -3.0414     3.9729 C.3     
  31 H31           -0.9291    -0.5556     0.0122 H       
  32 H32            3.3143     1.9510    -0.0224 H       
  33 H33            3.1516    -2.2634    -1.5112 H       
  34 H34            3.5708    -2.9334     0.1005 H       
  35 H35            1.7191    -3.2567     4.6109 H       
  36 H36            0.1513    -5.0948     4.1551 H       
  37 H37           -0.6753    -5.4858     1.8796 H       
  38 H38           -2.1302     3.8888     0.1244 H       
  39 H39           -1.0237     3.5031     1.4682 H       
  40 H40           -0.1915     4.0035    -1.4338 H       
  41 H41            0.0140     5.1502    -0.0842 H       
  42 H42           -1.8375    -4.4759    -0.9113 H       
  43 H43           -0.5302    -5.0417    -1.9785 H       
  44 H44           -0.7685    -5.7983    -0.3851 H       
  45 H45            5.3101    -0.3457     2.7105 H       
  46 H46            4.6067     0.0437     4.3050 H       
  47 H47            7.0947    -1.1561     3.9703 H       
  48 H48            6.0831    -1.3695     5.4367 H       
  49 H49            6.2820    -3.1961     2.9758 H       
  50 H50            6.3023    -3.6554     4.7117 H       
  51 H51            3.9627    -3.1755     4.9893 H       
  52 H52            3.9831    -3.8500     3.3311 H       
@<TRIPOS>BOND
   1    1    2 ar
   2    1    6 ar
   3    1   20 1
   4    2    3 ar
   5    2   31 1
   6    3    4 ar
   7    3    8 1
   8    4    5 ar
   9    4    7 1
  10    5    6 ar
  11    5   32 1
  12    6   23 1
  13    7    9 1
  14    8    9 1
  15    8   11 1
  16    8   12 1
  17    9   33 1
  18    9   34 1
  19   10   11 ar
  20   10   13 1
  21   10   18 ar
  22   11   15 ar
  23   12   13 am
  24   12   14 2
  25   13   26 1
  26   15   16 ar
  27   15   19 1
  28   16   17 ar
  29   16   35 1
  30   17   18 ar
  31   17   36 1
  32   18   37 1
  33   19   24 am
  34   19   25 2
  35   20   21 1
  36   21   22 1
  37   21   38 1
  38   21   39 1
  39   22   23 1
  40   22   40 1
  41   22   41 1
  42   24   27 1
  43   24   30 1
  44   26   42 1
  45   26   43 1
  46   26   44 1
  47   27   28 1
  48   27   45 1
  49   27   46 1
  50   28   29 1
  51   28   47 1
  52   28   48 1
  53   29   30 1
  54   29   49 1
  55   29   50 1
  56   30   51 1
  57   30   52 1

#	End of record

