#	Name: ASD01880343
#	Creating user name:	WinNT
#	Creation time:	15. 06. 2019 19:40

#	Modifying user name:	WinNT
#	Modification time:	15. 06. 2019 19:40

#	Program:	/corina/corina34_cracker 3.40 0067  02.08.2006

@<TRIPOS>MOLECULE
ASD01880343
  41   43    0    0    0
SMALL
NO_CHARGES


@<TRIPOS>ATOM
   1 C1            -0.0158     1.3166     0.0093 C.ar    
   2 N2             0.0021    -0.0041     0.0020 N.ar    
   3 C3            -1.1218    -0.7055     0.0094 C.ar    
   4 C4            -2.3611    -0.0158     0.0254 C.ar    
   5 C5            -2.3234     1.3812     0.0325 C.ar    
   6 N6            -1.1363     2.0007     0.0291 N.ar    
   7 C7            -3.7205    -0.5227     0.0357 C.2     
   8 C8            -4.6572     0.4056     0.0497 C.2     
   9 S9            -3.9623     2.0156     0.0517 S.3     
  10 C10           -6.1367     0.1192     0.0623 C.3     
  11 N11           -1.0871    -2.0883     0.0012 N.pl3   
  12 C12            0.1995    -2.7886    -0.0158 C.3     
  13 C13           -0.0386    -4.2767    -0.0219 C.ar    
  14 C14           -0.3478    -6.3300     1.1704 C.ar    
  15 C15           -0.4754    -7.0084    -0.0330 C.ar    
  16 C16           -0.3786    -6.3153    -1.2309 C.ar    
  17 C17           -0.1598    -4.9514    -1.2227 C.ar    
  18 C18           -0.1300    -4.9659     1.1733 C.ar    
  19 O19           -0.6897    -8.3504    -0.0384 O.3     
  20 C20           -0.8111    -8.9828    -1.3141 C.3     
  21 C21            1.2933     2.0630     0.0008 C.3     
  22 C22            1.7226     2.3233    -1.4445 C.3     
  23 H23           -3.9477    -1.5785     0.0318 H       
  24 H24           -6.4835     0.0446     1.0929 H       
  25 H25           -6.6674     0.9266    -0.4421 H       
  26 H26           -6.3292    -0.8209    -0.4548 H       
  27 H27           -1.9147    -2.5942     0.0067 H       
  28 H28            0.7553    -2.5060    -0.9099 H       
  29 H29            0.7733    -2.5161     0.8700 H       
  30 H30           -0.4230    -6.8673     2.1043 H       
  31 H31           -0.4776    -6.8412    -2.1690 H       
  32 H32           -0.0837    -4.4115    -2.1549 H       
  33 H33           -0.0305    -4.4373     2.1099 H       
  34 H34            0.1055    -8.8302    -1.8840 H       
  35 H35           -0.9793   -10.0508    -1.1757 H       
  36 H36           -1.6520    -8.5497    -1.8558 H       
  37 H37            1.1731     3.0133     0.5209 H       
  38 H38            2.0546     1.4670     0.5042 H       
  39 H39            1.8428     1.3730    -1.9646 H       
  40 H40            0.9613     2.9193    -1.9479 H       
  41 H41            2.6695     2.8632    -1.4506 H       
@<TRIPOS>BOND
   1    1    2 ar
   2    1   21 1
   3    1    6 ar
   4    2    3 ar
   5    3    4 ar
   6    3   11 1
   7    4    5 ar
   8    4    7 1
   9    5    6 ar
  10    5    9 1
  11    7    8 2
  12    7   23 1
  13    8    9 1
  14    8   10 1
  15   10   24 1
  16   10   25 1
  17   10   26 1
  18   11   12 1
  19   11   27 1
  20   12   13 1
  21   12   28 1
  22   12   29 1
  23   13   17 ar
  24   13   18 ar
  25   14   15 ar
  26   14   18 ar
  27   14   30 1
  28   15   16 ar
  29   15   19 1
  30   16   17 ar
  31   16   31 1
  32   17   32 1
  33   18   33 1
  34   19   20 1
  35   20   34 1
  36   20   35 1
  37   20   36 1
  38   21   22 1
  39   21   37 1
  40   21   38 1
  41   22   39 1
  42   22   40 1
  43   22   41 1

#	End of record

