#	Name: ASD09116026
#	Creating user name:	WinNT
#	Creation time:	15. 06. 2019 21:20

#	Modifying user name:	WinNT
#	Modification time:	15. 06. 2019 21:20

#	Program:	/corina/corina34_cracker 3.40 0067  02.08.2006

@<TRIPOS>MOLECULE
ASD09116026
  78   85    0    0    0
SMALL
NO_CHARGES


@<TRIPOS>ATOM
   1 C1            -0.2170     1.3926     0.3773 C.ar    
   2 C2            -0.1737     0.0012     0.3231 C.ar    
   3 C3            -1.3477    -0.6982     0.1851 C.ar    
   4 N4            -2.4880    -0.0092     0.1087 N.ar    
   5 N5            -2.5308     1.2730     0.1587 N.ar    
   6 C6            -1.4368     2.0272     0.2966 C.ar    
   7 N7            -1.3480    -2.0925     0.1259 N.pl3   
   8 N8            -0.2286    -2.9375     0.1938 N.2     
   9 C9            -0.6719    -4.1684     0.1010 C.2     
  10 N10           -2.0044    -4.1440    -0.0212 N.2     
  11 C11           -2.4282    -2.8985    -0.0025 C.2     
  12 N12            0.1180    -5.3175     0.1256 N.pl3   
  13 C13           -0.4847    -6.5819     0.1222 C.ar    
  14 C14            0.1450    -7.6582    -0.4849 C.ar    
  15 C15           -1.7221    -6.7753     0.7341 C.ar    
  16 C16           -2.2799    -8.0407     0.7070 C.ar    
  17 C17           -1.5926    -9.0710     0.0747 C.ar    
  18 N18           -0.4166    -8.8522    -0.4920 N.ar    
  19 N19           -3.7430    -2.4856    -0.1045 N.pl3   
  20 N20           -2.1456   -10.3490     0.0418 N.3     
  21 C21           -3.4866   -10.3273    -0.5588 C.3     
  22 C22           -1.2666   -11.2850    -0.6730 C.3     
  23 C23           -1.8701   -12.6904    -0.6181 C.3     
  24 N24           -3.2111   -12.6687    -1.2188 N.3     
  25 C25           -4.0901   -11.7327    -0.5040 C.3     
  26 C26           -3.7943   -14.0165    -1.2534 C.3     
  27 C27            1.1390     2.0352     0.5294 C.3     
  28 C28            1.7759     1.4677     1.8099 C.3     
  29 C29            1.8233    -0.0591     1.7510 C.3     
  30 C30            1.2204    -0.5651     0.4291 C.3     
  31 C31            2.0041     1.5699    -0.6548 C.3     
  32 C32            2.0520     0.0431    -0.7136 C.3     
  33 C33           -1.5319     3.5064     0.3502 C.ar    
  34 C34           -2.5108     4.1354     1.1249 C.ar    
  35 C35           -2.5635     5.5141     1.1467 C.ar    
  36 N36           -1.7071     6.2356     0.4494 N.ar    
  37 C37           -0.7686     5.6817    -0.2940 C.ar    
  38 C38           -0.6414     4.3097    -0.3681 C.ar    
  39 N39           -1.0135   -13.6211    -1.3651 N.3     
  40 C40           -5.2696   -13.9238    -1.6483 C.3     
  41 C41           -6.0293   -15.2357    -1.8551 C.3     
  42 C42           -6.3064   -14.3779    -0.6189 C.3     
  43 H43            1.0848    -5.2411     0.1450 H       
  44 H44            1.1058    -7.5174    -0.9575 H       
  45 H45           -2.2333    -5.9564     1.2183 H       
  46 H46           -3.2371    -8.2263     1.1714 H       
  47 H47           -4.4512    -3.1414    -0.2007 H       
  48 H48           -3.9577    -1.5400    -0.0800 H       
  49 H49           -4.1222    -9.6367    -0.0045 H       
  50 H50           -3.4149   -10.0026    -1.5969 H       
  51 H51           -1.1697   -10.9712    -1.7123 H       
  52 H52           -0.2837   -11.2926    -0.2019 H       
  53 H53           -1.9418   -13.0151     0.4199 H       
  54 H54           -4.1870   -12.0465     0.5354 H       
  55 H55           -5.0730   -11.7251    -0.9750 H       
  56 H56           -3.2603   -14.6248    -1.9834 H       
  57 H57           -3.7101   -14.4743    -0.2678 H       
  58 H58            1.0588     3.1212     0.5757 H       
  59 H59            2.7893     1.8561     1.9110 H       
  60 H60            1.1867     1.7770     2.6731 H       
  61 H61            2.8591    -0.3907     1.8250 H       
  62 H62            1.2561    -0.4698     2.5863 H       
  63 H63            1.2084    -1.6544     0.3915 H       
  64 H64            1.5805     1.9532    -1.5831 H       
  65 H65            3.0158     1.9579    -0.5364 H       
  66 H66            3.0863    -0.2888    -0.6228 H       
  67 H67            1.6512    -0.2935    -1.6697 H       
  68 H68           -3.2156     3.5509     1.6977 H       
  69 H69           -3.3163     6.0091     1.7423 H       
  70 H70           -0.0882     6.3106    -0.8489 H       
  71 H71            0.1294     3.8629    -0.9785 H       
  72 H72           -0.0847   -13.6524    -0.9722 H       
  73 H73           -1.4234   -14.5425    -1.3983 H       
  74 H74           -5.5324   -13.0834    -2.2907 H       
  75 H75           -6.7922   -15.2582    -2.6333 H       
  76 H76           -5.4781   -16.1648    -1.7099 H       
  77 H77           -5.9374   -14.7427     0.3398 H       
  78 H78           -7.2515   -13.8361    -0.5837 H       
@<TRIPOS>BOND
   1    1    2 ar
   2    1   27 1
   3    1    6 ar
   4    2    3 ar
   5    2   30 1
   6    3    4 ar
   7    3    7 1
   8    4    5 ar
   9    5    6 ar
  10    6   33 1
  11    7    8 1
  12    7   11 1
  13    8    9 2
  14    9   10 1
  15    9   12 1
  16   10   11 2
  17   11   19 1
  18   12   13 1
  19   12   43 1
  20   13   14 ar
  21   13   15 ar
  22   14   18 ar
  23   14   44 1
  24   15   16 ar
  25   15   45 1
  26   16   17 ar
  27   16   46 1
  28   17   18 ar
  29   17   20 1
  30   19   47 1
  31   19   48 1
  32   20   21 1
  33   20   22 1
  34   21   25 1
  35   21   49 1
  36   21   50 1
  37   22   23 1
  38   22   51 1
  39   22   52 1
  40   23   24 1
  41   23   39 1
  42   23   53 1
  43   24   25 1
  44   24   26 1
  45   25   54 1
  46   25   55 1
  47   26   40 1
  48   26   56 1
  49   26   57 1
  50   27   28 1
  51   27   31 1
  52   27   58 1
  53   28   29 1
  54   28   59 1
  55   28   60 1
  56   29   30 1
  57   29   61 1
  58   29   62 1
  59   30   32 1
  60   30   63 1
  61   31   32 1
  62   31   64 1
  63   31   65 1
  64   32   66 1
  65   32   67 1
  66   33   34 ar
  67   33   38 ar
  68   34   35 ar
  69   34   68 1
  70   35   36 ar
  71   35   69 1
  72   36   37 ar
  73   37   38 ar
  74   37   70 1
  75   38   71 1
  76   39   72 1
  77   39   73 1
  78   40   41 1
  79   40   42 1
  80   40   74 1
  81   41   42 1
  82   41   75 1
  83   41   76 1
  84   42   77 1
  85   42   78 1

#	End of record

