#	Name: ASD04570038
#	Creating user name:	WinNT
#	Creation time:	15. 06. 2019 20:49

#	Modifying user name:	WinNT
#	Modification time:	15. 06. 2019 20:49

#	Program:	/corina/corina34_cracker 3.40 0067  02.08.2006

@<TRIPOS>MOLECULE
ASD04570038
 325  327    0    0    0
SMALL
NO_CHARGES


@<TRIPOS>ATOM
   1 C1            -0.0187     1.5258     0.0104 C.3     
   2 C2             0.0021    -0.0041     0.0020 C.3     
   3 C3            -1.4333    -0.5336     0.0129 C.3     
   4 C4            -1.4126    -2.0635     0.0045 C.3     
   5 C5            -2.8479    -2.5931     0.0153 C.3     
   6 C6            -2.8272    -4.1229     0.0069 C.3     
   7 C7            -4.2626    -4.6525     0.0178 C.3     
   8 C8            -4.2418    -6.1823     0.0094 C.3     
   9 C9            -5.6772    -6.7119     0.0202 C.3     
  10 C10           -5.6565    -8.2417     0.0118 C.3     
  11 C11           -7.0918    -8.7713     0.0227 C.3     
  12 C12           -7.0711   -10.3012     0.0143 C.3     
  13 C13           -8.5065   -10.8307     0.0251 C.3     
  14 C14           -8.4857   -12.3606     0.0167 C.3     
  15 C15           -9.8995   -12.8822     0.0274 C.2     
  16 N16          -10.1278   -14.2105     0.0224 N.am    
  17 O17          -10.8319   -12.1067     0.0405 O.2     
  18 C18          -11.5022   -14.7176     0.0328 C.3     
  19 C19          -11.4818   -16.2244     0.0246 C.2     
  20 N20          -12.6397   -16.9141     0.0319 N.am    
  21 O21          -10.4234   -16.8164     0.0113 O.2     
  22 C22          -12.6198   -18.3789     0.0239 C.3     
  23 C23          -14.0336   -18.9006     0.0345 C.2     
  24 N24          -14.2619   -20.2288     0.0296 N.am    
  25 O25          -14.9660   -18.1251     0.0476 O.2     
  26 C26          -15.6363   -20.7359     0.0400 C.3     
  27 C27          -15.6677   -22.1146    -0.5676 C.2     
  28 O28          -14.6429   -22.6236    -0.9697 O.2     
  29 N29          -16.8345   -22.7821    -0.6641 N.am    
  30 C30          -16.1445   -20.8022     1.4816 C.3     
  31 C31          -16.2295   -19.4087     2.0489 C.ar    
  32 C32          -17.3963   -18.6790     1.9152 C.ar    
  33 C33          -16.8650   -24.1224    -1.2548 C.3     
  34 C34          -16.9741   -24.0068    -2.7765 C.3     
  35 C35          -18.0543   -24.8792    -0.7220 C.2     
  36 O36          -18.8028   -24.3511     0.0728 O.2     
  37 N37          -18.2862   -26.1430    -1.1288 N.am    
  38 C38          -15.7083   -23.3492    -3.3300 C.3     
  39 C39          -15.8157   -23.2353    -4.8289 C.2     
  40 N40          -14.8101   -22.6835    -5.5365 N.am    
  41 C41          -19.4424   -26.8788    -0.6109 C.3     
  42 C42          -20.6788   -26.5390    -1.4457 C.3     
  43 C43          -19.1730   -28.3593    -0.6918 C.2     
  44 O44          -18.1191   -28.7604    -1.1381 O.2     
  45 N45          -20.1034   -29.2376    -0.2681 N.am    
  46 C46          -19.8415   -30.6769    -0.3467 C.3     
  47 C47          -20.6853   -31.4067     0.7003 C.3     
  48 C48          -20.2076   -31.1864    -1.7421 C.3     
  49 C49          -20.2332   -30.9890     2.1011 C.3     
  50 C50          -21.0770   -31.7188     3.1481 C.3     
  51 C51          -17.4766   -17.4013     2.4344 C.ar    
  52 C52          -16.3853   -16.8505     3.0903 C.ar    
  53 C53          -15.2157   -17.5846     3.2231 C.ar    
  54 C54          -15.1423   -18.8640     2.7071 C.ar    
  55 O55          -16.4617   -15.5936     3.6015 O.3     
  56 O56          -16.8070   -23.6402    -5.3983 O.2     
  57 C57          -20.6250   -31.3010     4.5488 C.3     
  58 N58          -21.4351   -32.0018     5.5541 N.3     
  59 C59            1.4167     2.0553    -0.0004 C.3     
  60 H60           -9.3821   -14.8307     0.0120 H       
  61 C61          -21.0259   -25.0600    -1.2644 C.3     
  62 C62          -22.2623   -24.7202    -2.0992 C.3     
  63 C63          -22.6093   -23.2412    -1.9179 C.3     
  64 N64          -23.7964   -22.9150    -2.7194 N.3     
  65 H65           -0.5459     1.8868    -0.8726 H       
  66 H66           -0.5289     1.8773     0.9072 H       
  67 H67            0.5123    -0.3556    -0.8948 H       
  68 H68            0.5293    -0.3651     0.8851 H       
  69 H69           -1.9435    -0.1821     0.9097 H       
  70 H70           -1.9605    -0.1726    -0.8702 H       
  71 H71           -0.9024    -2.4150    -0.8923 H       
  72 H72           -0.8854    -2.4246     0.8875 H       
  73 H73           -3.3581    -2.2415     0.9121 H       
  74 H74           -3.3751    -2.2320    -0.8677 H       
  75 H75           -2.3170    -4.4744    -0.8899 H       
  76 H76           -2.3000    -4.4840     0.8900 H       
  77 H77           -4.7728    -4.3010     0.9146 H       
  78 H78           -4.7898    -4.2914    -0.8653 H       
  79 H79           -3.7316    -6.5338    -0.8874 H       
  80 H80           -3.7146    -6.5434     0.8924 H       
  81 H81           -6.1874    -6.3604     0.9170 H       
  82 H82           -6.2044    -6.3508    -0.8628 H       
  83 H83           -5.1463    -8.5933    -0.8850 H       
  84 H84           -5.1293    -8.6028     0.8949 H       
  85 H85           -7.6020    -8.4198     0.9195 H       
  86 H86           -7.6190    -8.4102    -0.8604 H       
  87 H87           -6.5609   -10.6527    -0.8825 H       
  88 H88           -6.5439   -10.6622     0.8973 H       
  89 H89           -9.0167   -10.4792     0.9219 H       
  90 H90           -9.0337   -10.4697    -0.8579 H       
  91 H91           -7.9755   -12.7121    -0.8801 H       
  92 H92           -7.9586   -12.7217     0.8998 H       
  93 H93          -12.0124   -14.3660     0.9296 H       
  94 H94          -12.0294   -14.3565    -0.8502 H       
  95 H95          -13.4862   -16.4406     0.0425 H       
  96 H96          -12.1096   -18.7305    -0.8729 H       
  97 H97          -12.0926   -18.7400     0.9069 H       
  98 H98          -13.5162   -20.8491     0.0191 H       
  99 H99          -16.2741   -20.0688    -0.5398 H       
 100 H100         -17.6542   -22.3751    -0.3425 H       
 101 H101         -17.1328   -21.2619     1.4977 H       
 102 H102         -15.4570   -21.3977     2.0822 H       
 103 H103         -18.2455   -19.1081     1.4042 H       
 104 H104         -15.9498   -24.6547    -0.9955 H       
 105 H105         -17.0861   -25.0009    -3.2094 H       
 106 H106         -17.8415   -23.3988    -3.0335 H       
 107 H107         -17.6876   -26.5655    -1.7645 H       
 108 H108         -15.5963   -22.3552    -2.8972 H       
 109 H109         -14.8409   -23.9573    -3.0731 H       
 110 H110         -14.0173   -22.3597    -5.0811 H       
 111 H111         -14.8793   -22.6102    -6.5013 H       
 112 H112         -19.6166   -26.5973     0.4276 H       
 113 H113         -20.4729   -26.7376    -2.4975 H       
 114 H114         -21.5183   -27.1521    -1.1177 H       
 115 H115         -20.9463   -28.9168     0.0889 H       
 116 H116         -18.7847   -30.8648    -0.1570 H       
 117 H117         -21.7355   -31.1480     0.5652 H       
 118 H118         -20.5582   -32.4830     0.5835 H       
 119 H119         -19.6064   -30.6665    -2.4881 H       
 120 H120         -20.0127   -32.2573    -1.8006 H       
 121 H121         -21.2644   -30.9985    -1.9319 H       
 122 H122         -19.1830   -31.2476     2.2362 H       
 123 H123         -20.3603   -29.9127     2.2179 H       
 124 H124         -22.1272   -31.4601     3.0130 H       
 125 H125         -20.9500   -32.7950     3.0312 H       
 126 H126         -18.3881   -16.8317     2.3294 H       
 127 H127         -14.3647   -17.1580     3.7332 H       
 128 H128         -14.2321   -19.4361     2.8105 H       
 129 H129         -16.7777   -15.5590     4.5147 H       
 130 H130         -19.5748   -31.5597     4.6839 H       
 131 H131         -20.7520   -30.2248     4.6657 H       
 132 H132         -21.3852   -33.0013     5.4260 H       
 133 H133         -21.1557   -31.7426     6.4884 H       
 134 H134           1.4019     3.1452     0.0056 H       
 135 H135           1.9439     1.6943     0.8826 H       
 136 H136           1.9269     1.7038    -0.8972 H       
 137 H137         -21.2318   -24.8614    -0.2126 H       
 138 H138         -20.1864   -24.4469    -1.5923 H       
 139 H139         -22.0563   -24.9188    -3.1509 H       
 140 H140         -23.1017   -25.3333    -1.7712 H       
 141 H141         -22.8153   -23.0426    -0.8661 H       
 142 H142         -21.7698   -22.6281    -2.2458 H       
 143 H143         -24.0461   -21.9428    -2.6165 H       
 144 H144         -23.6534   -23.1509    -3.6899 H       
 145 N145          13.9515    25.3068    18.6914 N.am    
 146 C146          14.7543    26.5322    18.6998 C.3     
 147 C147          13.8491    27.7245    18.8736 C.2     
 148 N148          14.3374    28.8725    19.3837 N.am    
 149 O149          12.6813    27.6510    18.5546 O.2     
 150 C150          13.4780    30.0551    19.4802 C.3     
 151 C151          14.2109    31.2544    18.9366 C.2     
 152 O152          15.3400    31.1333    18.5106 O.2     
 153 N153          13.6118    32.4616    18.9239 N.am    
 154 C154          14.3243    33.6275    18.3955 C.3     
 155 C155          14.1485    33.6875    16.8769 C.3     
 156 C156          13.7648    34.8818    19.0159 C.2     
 157 O157          12.8600    34.8090    19.8202 O.2     
 158 N158          14.2699    36.0844    18.6769 N.am    
 159 C159          13.7260    37.3037    19.2800 C.3     
 160 C160          14.4122    37.5580    20.6236 C.3     
 161 C161          13.9730    38.4721    18.3607 C.2     
 162 O162          14.5468    38.3029    17.3057 O.2     
 163 N163          13.5562    39.7050    18.7110 N.am    
 164 C164          13.7963    40.8408    17.8174 C.3     
 165 C165          12.6764    40.9173    16.7777 C.3     
 166 C166          13.8235    42.1153    18.6211 C.2     
 167 O167          13.6586    42.0785    19.8221 O.2     
 168 N168          14.0311    43.2960    18.0053 N.am    
 169 C169          12.7276    39.6788    15.8809 C.3     
 170 C170          11.6078    39.7553    14.8412 C.3     
 171 N171          11.6568    38.5694    13.9824 N.pl3   
 172 C172          10.7414    38.4169    12.9681 C.2     
 173 C173          15.5111    26.6552    17.3758 C.3     
 174 C174          16.4473    27.8639    17.4339 C.3     
 175 O175          14.5775    26.8268    16.3076 O.3     
 176 C176          13.1124    30.3017    20.9452 C.3     
 177 C177          12.2332    29.1817    21.4389 C.2     
 178 O178          11.8927    29.1175    22.7357 O.3     
 179 O179          11.8347    28.3416    20.6674 O.2     
 180 C180          14.8265    32.4744    16.2367 C.3     
 181 C181          14.6507    32.5344    14.7180 C.3     
 182 C182          15.3286    31.3214    14.0778 C.3     
 183 N183          15.1599    31.3789    12.6197 N.3     
 184 C184          14.0643    36.4493    21.5831 C.ar    
 185 C185          14.8605    35.3210    21.6520 C.ar    
 186 C186          12.9526    36.5645    22.3972 C.ar    
 187 C187          12.6318    35.5497    23.2779 C.ar    
 188 C188          13.4262    34.4143    23.3451 C.ar    
 189 C189          14.5438    34.3032    22.5307 C.ar    
 190 N190           9.7799    39.3773    12.7596 N.pl3   
 191 N191          10.7850    37.3618    12.2040 N.2     
 192 C192          14.0576    44.5350    18.7866 C.3     
 193 C193          15.4411    44.7473    19.3450 C.2     
 194 C194          13.6848    45.7141    17.8857 C.3     
 195 C195          12.2359    45.5610    17.4187 C.3     
 196 N196          15.7033    45.8311    20.1020 N.am    
 197 O197          16.3186    43.9428    19.1131 O.2     
 198 C198          11.2984    45.6601    18.6238 C.3     
 199 O199          13.1129    33.4148    24.2110 O.3     
 200 C200          11.9018    46.6710    16.4201 C.3     
 201 C201          10.7516    16.1808    19.8191 C.2     
 202 N202          11.3996    16.1653    18.6375 N.am    
 203 C203           9.2487    16.0747    19.8557 C.3     
 204 N204           8.7455    16.5482    21.1535 N.am    
 205 C205           8.0099    15.4491    21.8048 C.3     
 206 C206           8.5922    14.1569    21.1795 C.3     
 207 C207           8.8231    14.5985    19.7102 C.3     
 208 C208           8.9273    17.7824    21.6636 C.2     
 209 O209           9.5531    18.6113    21.0373 O.2     
 210 C210           8.3530    18.1324    23.0121 C.3     
 211 C211          14.5092    24.1334    19.0499 C.2     
 212 C212          13.6834    22.8728    19.0412 C.3     
 213 O213          15.6756    24.0919    19.3795 O.2     
 214 N214          14.5128    21.7428    19.4673 N.am    
 215 C215          12.5030    23.0298    20.0019 C.3     
 216 C216          14.1973    20.4913    19.0791 C.2     
 217 C217          15.0504    19.3289    19.5174 C.3     
 218 O218          13.2268    20.3005    18.3772 O.2     
 219 N219          14.5079    18.0764    18.9709 N.am    
 220 C220          15.5196    17.4688    18.0874 C.3     
 221 C221          16.8725    18.0359    18.5848 C.3     
 222 C222          16.4813    19.4892    18.9620 C.3     
 223 C223          13.2880    17.5677    19.2346 C.2     
 224 O224          12.5343    18.1555    19.9811 O.2     
 225 C225          12.8606    16.2684    18.6019 C.3     
 226 C226          13.4734    15.0989    19.3749 C.3     
 227 O227          11.3778    16.2801    20.8530 O.2     
 228 C228          13.1427    13.7866    18.6611 C.3     
 229 C229          13.7555    12.6171    19.4341 C.3     
 230 N230          13.4389    11.3606    18.7505 N.pl3   
 231 C231          13.8871    10.1667    19.2642 C.2     
 232 N232          14.5937    10.1527    20.3594 N.2     
 233 N233          13.5900     8.9876    18.6227 N.pl3   
 234 H234          13.0175    25.3406    18.4316 H       
 235 H235          15.4671    26.4940    19.5235 H       
 236 H236          15.2577    28.9158    19.6868 H       
 237 H237          12.5689    29.8918    18.9014 H       
 238 H238          12.7088    32.5585    19.2647 H       
 239 H239          15.3843    33.5450    18.6356 H       
 240 H240          13.0860    33.6804    16.6335 H       
 241 H241          14.6028    34.6015    16.4943 H       
 242 H242          14.9936    36.1427    18.0336 H       
 243 H243          12.6539    37.1847    19.4363 H       
 244 H244          15.4923    37.5886    20.4800 H       
 245 H245          14.0726    38.5105    21.0305 H       
 246 H246          13.0972    39.8403    19.5548 H       
 247 H247          14.7530    40.7095    17.3119 H       
 248 H248          11.7123    40.9593    17.2846 H       
 249 H249          12.8062    41.8122    16.1691 H       
 250 H250          14.1630    43.3255    17.0447 H       
 251 H251          13.6917    39.6369    15.3740 H       
 252 H252          12.5978    38.7839    16.4895 H       
 253 H253          10.6437    39.7973    15.3480 H       
 254 H254          11.7375    40.6503    14.2326 H       
 255 H255          12.3351    37.8919    14.1295 H       
 256 H256          16.0953    25.7509    17.2059 H       
 257 H257          15.8742    28.7556    17.6879 H       
 258 H258          17.2119    27.6951    18.1922 H       
 259 H259          16.9230    28.0021    16.4629 H       
 260 H260          14.9880    26.9119    15.4362 H       
 261 H261          14.0217    30.3410    21.5450 H       
 262 H262          12.5785    31.2480    21.0322 H       
 263 H263          11.3271    28.3809    23.0052 H       
 264 H264          15.8889    32.4815    16.4800 H       
 265 H265          14.3722    31.5604    16.6192 H       
 266 H266          13.5882    32.5273    14.4747 H       
 267 H267          15.1049    33.4484    14.3355 H       
 268 H268          16.3911    31.3285    14.3212 H       
 269 H269          14.8744    30.4073    14.4604 H       
 270 H270          15.5993    30.5879    12.1733 H       
 271 H271          14.1839    31.4385    12.3707 H       
 272 H272          15.7306    35.2351    21.0180 H       
 273 H273          12.3348    37.4488    22.3447 H       
 274 H274          11.7636    35.6404    23.9138 H       
 275 H275          15.1637    33.4203    22.5812 H       
 276 H276           9.7475    40.1625    13.3282 H       
 277 H277           9.1341    39.2697    12.0439 H       
 278 H278          10.1392    37.2542    11.4884 H       
 279 H279          13.3422    44.4633    19.6058 H       
 280 H280          13.7904    46.6449    18.4431 H       
 281 H281          14.3458    45.7325    17.0192 H       
 282 H282          12.1094    44.5905    16.9389 H       
 283 H283          15.0015    46.4745    20.2874 H       
 284 H284          16.5939    45.9677    20.4614 H       
 285 H285          11.4249    46.6306    19.1036 H       
 286 H286          10.2662    45.5510    18.2911 H       
 287 H287          11.5364    44.8693    19.3353 H       
 288 H288          12.5264    32.7418    23.8393 H       
 289 H289          12.5697    46.6003    15.5615 H       
 290 H290          10.8696    46.5619    16.0874 H       
 291 H291          12.0283    47.6415    16.8999 H       
 292 H292          10.8988    16.0859    17.8106 H       
 293 H293           8.8156    16.6689    19.0510 H       
 294 H294           8.1836    15.4616    22.8808 H       
 295 H295           6.9439    15.5270    21.5909 H       
 296 H296           9.5325    13.8813    21.6570 H       
 297 H297           7.8739    13.3388    21.2334 H       
 298 H298           7.9014    14.5179    19.1339 H       
 299 H299           9.6185    14.0112    19.2515 H       
 300 H300           7.8283    17.2680    23.4191 H       
 301 H301           9.1594    18.4190    23.6872 H       
 302 H302           7.6558    18.9635    22.9055 H       
 303 H303          13.3100    22.6899    18.0336 H       
 304 H304          15.2889    21.8953    20.0287 H       
 305 H305          12.8763    23.2126    21.0095 H       
 306 H306          11.8859    23.8705    19.6849 H       
 307 H307          11.9057    22.1180    19.9956 H       
 308 H308          15.0763    19.2779    20.6059 H       
 309 H309          15.5048    16.3832    18.1841 H       
 310 H310          15.3435    17.7607    17.0520 H       
 311 H311          17.2287    17.4882    19.4573 H       
 312 H312          17.6168    18.0259    17.7886 H       
 313 H313          16.4832    20.1303    18.0804 H       
 314 H314          17.1503    19.8824    19.7275 H       
 315 H315          13.2018    16.2386    17.5672 H       
 316 H316          14.5551    15.2230    19.4244 H       
 317 H317          13.0637    15.0764    20.3848 H       
 318 H318          12.0609    13.6625    18.6116 H       
 319 H319          13.5524    13.8092    17.6512 H       
 320 H320          14.8373    12.7412    19.4835 H       
 321 H321          13.3458    12.5946    20.4439 H       
 322 H322          12.9130    11.3710    17.9355 H       
 323 H323          14.9099     9.3104    20.7218 H       
 324 H324          13.0641     8.9980    17.8077 H       
 325 H325          13.9062     8.1452    18.9852 H       
@<TRIPOS>BOND
   1    1    2 1
   2    1   59 1
   3    1   65 1
   4    1   66 1
   5    2    3 1
   6    2   67 1
   7    2   68 1
   8    3    4 1
   9    3   69 1
  10    3   70 1
  11    4    5 1
  12    4   71 1
  13    4   72 1
  14    5    6 1
  15    5   73 1
  16    5   74 1
  17    6    7 1
  18    6   75 1
  19    6   76 1
  20    7    8 1
  21    7   77 1
  22    7   78 1
  23    8    9 1
  24    8   79 1
  25    8   80 1
  26    9   10 1
  27    9   81 1
  28    9   82 1
  29   10   11 1
  30   10   83 1
  31   10   84 1
  32   11   12 1
  33   11   85 1
  34   11   86 1
  35   12   13 1
  36   12   87 1
  37   12   88 1
  38   13   14 1
  39   13   89 1
  40   13   90 1
  41   14   15 1
  42   14   91 1
  43   14   92 1
  44   15   16 am
  45   15   17 2
  46   16   18 1
  47   16   60 1
  48   18   19 1
  49   18   93 1
  50   18   94 1
  51   19   20 am
  52   19   21 2
  53   20   22 1
  54   20   95 1
  55   22   23 1
  56   22   96 1
  57   22   97 1
  58   23   24 am
  59   23   25 2
  60   24   26 1
  61   24   98 1
  62   26   27 1
  63   26   30 1
  64   26   99 1
  65   27   28 2
  66   27   29 am
  67   29   33 1
  68   29  100 1
  69   30   31 1
  70   30  101 1
  71   30  102 1
  72   31   32 ar
  73   31   54 ar
  74   32   51 ar
  75   32  103 1
  76   33   34 1
  77   33   35 1
  78   33  104 1
  79   34   38 1
  80   34  105 1
  81   34  106 1
  82   35   36 2
  83   35   37 am
  84   37   41 1
  85   37  107 1
  86   38   39 1
  87   38  108 1
  88   38  109 1
  89   39   40 am
  90   39   56 2
  91   40  110 1
  92   40  111 1
  93   41   42 1
  94   41   43 1
  95   41  112 1
  96   42   61 1
  97   42  113 1
  98   42  114 1
  99   43   44 2
 100   43   45 am
 101   45   46 1
 102   45  115 1
 103   46   47 1
 104   46   48 1
 105   46  116 1
 106   47   49 1
 107   47  117 1
 108   47  118 1
 109   48  119 1
 110   48  120 1
 111   48  121 1
 112   49   50 1
 113   49  122 1
 114   49  123 1
 115   50   57 1
 116   50  124 1
 117   50  125 1
 118   51   52 ar
 119   51  126 1
 120   52   53 ar
 121   52   55 1
 122   53   54 ar
 123   53  127 1
 124   54  128 1
 125   55  129 1
 126   57   58 1
 127   57  130 1
 128   57  131 1
 129   58  132 1
 130   58  133 1
 131   59  134 1
 132   59  135 1
 133   59  136 1
 134   61   62 1
 135   61  137 1
 136   61  138 1
 137   62   63 1
 138   62  139 1
 139   62  140 1
 140   63   64 1
 141   63  141 1
 142   63  142 1
 143   64  143 1
 144   64  144 1
 145  145  211 am
 146  145  146 1
 147  145  234 1
 148  146  147 1
 149  146  173 1
 150  146  235 1
 151  147  148 am
 152  147  149 2
 153  148  150 1
 154  148  236 1
 155  150  151 1
 156  150  176 1
 157  150  237 1
 158  151  152 2
 159  151  153 am
 160  153  154 1
 161  153  238 1
 162  154  155 1
 163  154  156 1
 164  154  239 1
 165  155  180 1
 166  155  240 1
 167  155  241 1
 168  156  157 2
 169  156  158 am
 170  158  159 1
 171  158  242 1
 172  159  160 1
 173  159  161 1
 174  159  243 1
 175  160  184 1
 176  160  244 1
 177  160  245 1
 178  161  162 2
 179  161  163 am
 180  163  164 1
 181  163  246 1
 182  164  165 1
 183  164  166 1
 184  164  247 1
 185  165  169 1
 186  165  248 1
 187  165  249 1
 188  166  167 2
 189  166  168 am
 190  168  192 1
 191  168  250 1
 192  169  170 1
 193  169  251 1
 194  169  252 1
 195  170  171 1
 196  170  253 1
 197  170  254 1
 198  171  172 1
 199  171  255 1
 200  172  190 1
 201  172  191 2
 202  173  174 1
 203  173  175 1
 204  173  256 1
 205  174  257 1
 206  174  258 1
 207  174  259 1
 208  175  260 1
 209  176  177 1
 210  176  261 1
 211  176  262 1
 212  177  178 1
 213  177  179 2
 214  178  263 1
 215  180  181 1
 216  180  264 1
 217  180  265 1
 218  181  182 1
 219  181  266 1
 220  181  267 1
 221  182  183 1
 222  182  268 1
 223  182  269 1
 224  183  270 1
 225  183  271 1
 226  184  185 ar
 227  184  186 ar
 228  185  189 ar
 229  185  272 1
 230  186  187 ar
 231  186  273 1
 232  187  188 ar
 233  187  274 1
 234  188  189 ar
 235  188  199 1
 236  189  275 1
 237  190  276 1
 238  190  277 1
 239  191  278 1
 240  192  193 1
 241  192  194 1
 242  192  279 1
 243  193  196 am
 244  193  197 2
 245  194  195 1
 246  194  280 1
 247  194  281 1
 248  195  198 1
 249  195  200 1
 250  195  282 1
 251  196  283 1
 252  196  284 1
 253  198  285 1
 254  198  286 1
 255  198  287 1
 256  199  288 1
 257  200  289 1
 258  200  290 1
 259  200  291 1
 260  201  202 am
 261  201  227 2
 262  201  203 1
 263  202  225 1
 264  202  292 1
 265  203  204 1
 266  203  207 1
 267  203  293 1
 268  204  205 1
 269  204  208 am
 270  205  206 1
 271  205  294 1
 272  205  295 1
 273  206  207 1
 274  206  296 1
 275  206  297 1
 276  207  298 1
 277  207  299 1
 278  208  209 2
 279  208  210 1
 280  210  300 1
 281  210  301 1
 282  210  302 1
 283  211  212 1
 284  211  213 2
 285  212  214 1
 286  212  215 1
 287  212  303 1
 288  214  216 am
 289  214  304 1
 290  215  305 1
 291  215  306 1
 292  215  307 1
 293  216  218 2
 294  216  217 1
 295  217  219 1
 296  217  222 1
 297  217  308 1
 298  219  220 1
 299  219  223 am
 300  220  221 1
 301  220  309 1
 302  220  310 1
 303  221  222 1
 304  221  311 1
 305  221  312 1
 306  222  313 1
 307  222  314 1
 308  223  224 2
 309  223  225 1
 310  225  226 1
 311  225  315 1
 312  226  228 1
 313  226  316 1
 314  226  317 1
 315  228  229 1
 316  228  318 1
 317  228  319 1
 318  229  230 1
 319  229  320 1
 320  229  321 1
 321  230  231 1
 322  230  322 1
 323  231  232 2
 324  231  233 1
 325  232  323 1
 326  233  324 1
 327  233  325 1

#	End of record

