#	Name: ASD02500296
#	Creating user name:	WinNT
#	Creation time:	15. 06. 2019 20:22

#	Modifying user name:	WinNT
#	Modification time:	15. 06. 2019 20:22

#	Program:	/corina/corina34_cracker 3.40 0067  02.08.2006

@<TRIPOS>MOLECULE
ASD02500296
  62   66    0    0    0
SMALL
NO_CHARGES


@<TRIPOS>ATOM
   1 N1            -3.4915     6.0615    -0.6705 N.ar    
   2 C2            -4.4468     6.7712    -1.2200 C.ar    
   3 C3            -5.7450     6.7700    -0.7139 C.ar    
   4 C4            -6.0483     6.0149     0.3830 C.ar    
   5 C5            -5.0200     5.2536     0.9702 C.ar    
   6 C6            -5.2560     4.4539     2.0996 C.ar    
   7 C7            -4.2346     3.7324     2.6386 C.ar    
   8 C8            -2.9573     3.7774     2.0844 C.ar    
   9 C9            -2.6932     4.5421     0.9898 C.ar    
  10 C10           -3.7214     5.3011     0.4047 C.ar    
  11 S11           -1.0683     4.5811     0.3094 S.o2    
  12 O12           -0.7523     5.9512     0.1036 O.2     
  13 O13           -0.2774     3.7128     1.1092 O.2     
  14 N14           -1.1491     3.8891    -1.1929 N.am    
  15 C15           -1.4679     2.5418    -1.3214 C.ar    
  16 C16           -2.4095     2.1376    -2.2640 C.ar    
  17 C17           -2.7271     0.8050    -2.3936 C.ar    
  18 C18           -2.1033    -0.1434    -1.5776 C.ar    
  19 C19           -1.1583     0.2657    -0.6321 C.ar    
  20 C20           -0.8408     1.5992    -0.5112 C.ar    
  21 C21           -2.4420    -1.5727    -1.7137 C.2     
  22 O22           -3.5787    -1.9046    -1.9897 O.2     
  23 N23           -1.4913    -2.5107    -1.5321 N.am    
  24 C24           -0.1296    -2.1534    -1.0581 C.3     
  25 C25           -0.0235    -2.4170     0.3727 C.3     
  26 N26           -0.4149    -3.8225     0.6519 N.am    
  27 C27           -1.8060    -4.1043     0.7226 C.3     
  28 C28           -2.4283    -4.6502    -0.6040 C.3     
  29 C29           -1.7490    -3.8861    -1.7799 C.3     
  30 C30            0.0848    -6.1600     1.1952 C.ar    
  31 C31            1.0454    -7.1195     1.5070 C.ar    
  32 C32            0.6335    -8.3970     1.8523 C.ar    
  33 C33           -0.7253    -8.6704     1.8739 C.ar    
  34 C34           -1.6252    -7.6671     1.5522 C.ar    
  35 N35           -1.2069    -6.4631     1.2279 N.ar    
  36 C36            0.5085    -4.7880     0.8300 C.2     
  37 O37            1.6884    -4.5332     0.6909 O.2     
  38 H38           -4.2216     7.3732    -2.0879 H       
  39 H39           -6.5107     7.3660    -1.1883 H       
  40 H40           -7.0491     6.0024     0.7887 H       
  41 H41           -6.2418     4.4114     2.5386 H       
  42 H42           -4.4171     3.1174     3.5075 H       
  43 H43           -2.1637     3.1966     2.5307 H       
  44 H44           -0.9740     4.4236    -1.9831 H       
  45 H45           -2.8913     2.8708    -2.8938 H       
  46 H46           -3.4579     0.4921    -3.1247 H       
  47 H47           -0.6750    -0.4646    -0.0001 H       
  48 H48           -0.1073     1.9153     0.2157 H       
  49 H49            0.6090    -2.7506    -1.5928 H       
  50 H50            0.0544    -1.0957    -1.2468 H       
  51 H51            1.0049    -2.2557     0.6960 H       
  52 H52           -0.6843    -1.7415     0.9160 H       
  53 H53           -1.9693    -4.8410     1.5091 H       
  54 H54           -2.3299    -3.1890     0.9983 H       
  55 H55           -2.2336    -5.7190    -0.6927 H       
  56 H56           -3.5026    -4.4660    -0.6131 H       
  57 H57           -2.3960    -3.9638    -2.6537 H       
  58 H58           -0.8041    -4.3781    -2.0102 H       
  59 H59            2.0962    -6.8716     1.4796 H       
  60 H60            1.3548    -9.1621     2.0987 H       
  61 H61           -1.0791    -9.6559     2.1384 H       
  62 H62           -2.6845    -7.8766     1.5679 H       
@<TRIPOS>BOND
   1    1    2 ar
   2    1   10 ar
   3    2    3 ar
   4    2   38 1
   5    3    4 ar
   6    3   39 1
   7    4    5 ar
   8    4   40 1
   9    5    6 ar
  10    5   10 ar
  11    6    7 ar
  12    6   41 1
  13    7    8 ar
  14    7   42 1
  15    8    9 ar
  16    8   43 1
  17    9   10 ar
  18    9   11 1
  19   11   12 2
  20   11   13 2
  21   11   14 am
  22   14   15 1
  23   14   44 1
  24   15   16 ar
  25   15   20 ar
  26   16   17 ar
  27   16   45 1
  28   17   18 ar
  29   17   46 1
  30   18   19 ar
  31   18   21 1
  32   19   20 ar
  33   19   47 1
  34   20   48 1
  35   21   22 2
  36   21   23 am
  37   23   24 1
  38   23   29 1
  39   24   25 1
  40   24   49 1
  41   24   50 1
  42   25   26 1
  43   25   51 1
  44   25   52 1
  45   26   27 1
  46   26   36 am
  47   27   28 1
  48   27   53 1
  49   27   54 1
  50   28   29 1
  51   28   55 1
  52   28   56 1
  53   29   57 1
  54   29   58 1
  55   30   31 ar
  56   30   35 ar
  57   30   36 1
  58   31   32 ar
  59   31   59 1
  60   32   33 ar
  61   32   60 1
  62   33   34 ar
  63   33   61 1
  64   34   35 ar
  65   34   62 1
  66   36   37 2

#	End of record

