#	Name: ASD01812233
#	Creating user name:	WinNT
#	Creation time:	15. 06. 2019 19:28

#	Modifying user name:	WinNT
#	Modification time:	15. 06. 2019 19:28

#	Program:	/corina/corina34_cracker 3.40 0067  02.08.2006

@<TRIPOS>MOLECULE
ASD01812233
  72   77    0    0    0
SMALL
NO_CHARGES


@<TRIPOS>ATOM
   1 C1            -0.0168     1.3896     0.0097 C.ar    
   2 C2             0.0021    -0.0041     0.0020 C.ar    
   3 C3             1.1949    -0.6694    -0.0129 C.ar    
   4 C4             2.3801     0.0896    -0.0201 C.ar    
   5 C5             2.2888     1.5050    -0.0117 C.ar    
   6 N6             1.0882     2.0936     0.0029 N.ar    
   7 C7             3.6422    -0.5284    -0.0349 C.ar    
   8 C8             4.7712     0.2254    -0.0412 C.ar    
   9 C9             4.7001     1.6316    -0.0331 C.ar    
  10 C10            3.4670     2.2625    -0.0189 C.ar    
  11 C11            3.7425    -2.0320    -0.0434 C.3     
  12 C12            5.7518     2.6693    -0.0373 C.2     
  13 N13            5.1985     3.8941    -0.0257 N.am    
  14 C14            3.7387     3.7458    -0.0134 C.3     
  15 O15            6.9468     2.4470    -0.0494 O.2     
  16 C16            5.9298     5.1635    -0.0250 C.3     
  17 C17            6.7997     5.2545    -1.2825 C.3     
  18 C18            7.6188     6.5469    -1.2345 C.3     
  19 O19            8.4104     6.5637    -0.0449 O.3     
  20 C20            7.6485     6.5285     1.1635 C.3     
  21 C21            6.8305     5.2353     1.2119 C.3     
  22 N22            3.5225    -2.5298    -1.4078 N.3     
  23 C23            3.8440    -3.9593    -1.5047 C.3     
  24 C24            3.4666    -4.4754    -2.8951 C.3     
  25 C25            4.2405    -3.6861    -3.9546 C.3     
  26 C26            3.9253    -2.1956    -3.8008 C.3     
  27 C27            4.2895    -1.7457    -2.3842 C.3     
  28 O28            5.9641     5.2615    -2.4417 O.3     
  29 C29            5.6849    -3.9047    -3.7732 C.1     
  30 C30            6.8368    -4.0790    -3.6285 C.1     
  31 C31            3.8284    -4.1489    -5.3283 C.ar    
  32 N32            3.1639    -5.2798    -5.4628 N.ar    
  33 C33            2.7829    -5.7239    -6.6447 C.ar    
  34 C34            3.0706    -5.0122    -7.7936 C.ar    
  35 C35            3.7681    -3.8180    -7.6919 C.ar    
  36 C36            4.1466    -3.3802    -6.4321 C.ar    
  37 C37            4.1019    -3.0124    -8.9210 C.3     
  38 C38            3.1333     4.3962    -1.2589 C.3     
  39 H39           -0.9672     1.9026     0.0169 H       
  40 H40           -0.9254    -0.5573     0.0082 H       
  41 H41            1.2277    -1.7489    -0.0187 H       
  42 H42            5.7361    -0.2597    -0.0523 H       
  43 H43            4.7335    -2.3319     0.2974 H       
  44 H44            2.9874    -2.4503     0.6222 H       
  45 H45            3.3233     4.2005     0.8859 H       
  46 H46            5.2228     5.9931    -0.0099 H       
  47 H47            7.4726     4.3980    -1.3226 H       
  48 H48            8.2714     6.5962    -2.1062 H       
  49 H49            6.9456     7.4042    -1.2353 H       
  50 H50            8.3225     6.5645     2.0194 H       
  51 H51            6.9757     7.3855     1.1941 H       
  52 H52            6.2152     5.2269     2.1116 H       
  53 H53            7.5041     4.3784     1.2222 H       
  54 H54            4.9121    -4.1032    -1.3415 H       
  55 H55            3.2839    -4.5096    -0.7487 H       
  56 H56            3.7198    -5.5328    -2.9719 H       
  57 H57            2.3961    -4.3445    -3.0536 H       
  58 H58            4.5062    -1.6242    -4.5248 H       
  59 H59            2.8621    -2.0288    -3.9736 H       
  60 H60            4.0529    -0.6881    -2.2669 H       
  61 H61            5.3554    -1.8999    -2.2169 H       
  62 H62            6.4495     5.3175    -3.2762 H       
  63 H63            7.8671    -4.2349    -3.4992 H       
  64 H64            2.2400    -6.6549    -6.7154 H       
  65 H65            2.7566    -5.3815    -8.7587 H       
  66 H66            4.6906    -2.4546    -6.3155 H       
  67 H67            3.2952    -2.3080    -9.1239 H       
  68 H68            5.0296    -2.4646    -8.7555 H       
  69 H69            4.2223    -3.6820    -9.7726 H       
  70 H70            3.5340     3.9152    -2.1512 H       
  71 H71            2.0496     4.2800    -1.2392 H       
  72 H72            3.3848     5.4567    -1.2737 H       
@<TRIPOS>BOND
   1    1    2 ar
   2    1    6 ar
   3    1   39 1
   4    2    3 ar
   5    2   40 1
   6    3    4 ar
   7    3   41 1
   8    4    5 ar
   9    4    7 ar
  10    5    6 ar
  11    5   10 ar
  12    7    8 ar
  13    7   11 1
  14    8    9 ar
  15    8   42 1
  16    9   10 ar
  17    9   12 1
  18   10   14 1
  19   11   22 1
  20   11   43 1
  21   11   44 1
  22   12   13 am
  23   12   15 2
  24   13   14 1
  25   13   16 1
  26   14   38 1
  27   14   45 1
  28   16   17 1
  29   16   21 1
  30   16   46 1
  31   17   18 1
  32   17   28 1
  33   17   47 1
  34   18   19 1
  35   18   48 1
  36   18   49 1
  37   19   20 1
  38   20   21 1
  39   20   50 1
  40   20   51 1
  41   21   52 1
  42   21   53 1
  43   22   23 1
  44   22   27 1
  45   23   24 1
  46   23   54 1
  47   23   55 1
  48   24   25 1
  49   24   56 1
  50   24   57 1
  51   25   26 1
  52   25   29 1
  53   25   31 1
  54   26   27 1
  55   26   58 1
  56   26   59 1
  57   27   60 1
  58   27   61 1
  59   28   62 1
  60   29   30 3
  61   30   63 1
  62   31   32 ar
  63   31   36 ar
  64   32   33 ar
  65   33   34 ar
  66   33   64 1
  67   34   35 ar
  68   34   65 1
  69   35   37 1
  70   35   36 ar
  71   36   66 1
  72   37   67 1
  73   37   68 1
  74   37   69 1
  75   38   70 1
  76   38   71 1
  77   38   72 1

#	End of record

