#	Name: ASD03082255
#	Creating user name:	WinNT
#	Creation time:	15. 06. 2019 20:27

#	Modifying user name:	WinNT
#	Modification time:	15. 06. 2019 20:27

#	Program:	/corina/corina34_cracker 3.40 0067  02.08.2006

@<TRIPOS>MOLECULE
ASD03082255
  43   46    0    0    0
SMALL
NO_CHARGES


@<TRIPOS>ATOM
   1 N1            -0.0592     1.5018    -0.1335 N.pl3   
   2 N2             0.1091     0.1104    -0.0470 N.2     
   3 C3             1.3851    -0.1075     0.1759 C.2     
   4 N4             2.0225     1.0625     0.2335 N.2     
   5 C5             1.1647     2.0457     0.0486 C.2     
   6 N6             1.9786    -1.3621     0.3283 N.pl3   
   7 C7             3.3686    -1.4690     0.4423 C.ar    
   8 C8             3.9306    -2.5478     1.1131 C.ar    
   9 C9             5.3031    -2.6513     1.2244 C.ar    
  10 C10            6.1192    -1.6806     0.6678 C.ar    
  11 C11            5.5613    -0.6045    -0.0012 C.ar    
  12 C12            4.1890    -0.4998    -0.1200 C.ar    
  13 C13            5.9134    -3.8212     1.9524 C.3     
  14 F14            4.8969    -4.6596     2.4225 F       
  15 F15            6.7396    -4.5351     1.0779 F       
  16 F16            6.6701    -3.3548     3.0327 F       
  17 C17            3.0512     5.2914    -0.1535 C.ar    
  18 C18            2.7972     3.9351    -0.1539 C.ar    
  19 C19            1.4850     3.4907     0.0411 C.ar    
  20 C20            0.4841     4.4500     0.2284 C.ar    
  21 C21            0.8270     5.7864     0.2137 C.ar    
  22 N22            2.0774     6.1628     0.0269 N.ar    
  23 F23            7.4617    -1.7837     0.7783 F       
  24 C24           -1.3118     2.2210    -0.3789 C.3     
  25 C25           -2.0593     2.3852     0.9192 C.2     
  26 N26           -1.9511     3.3798     1.7485 N.2     
  27 O27           -2.6866     3.2159     2.6991 O.3     
  28 C28           -3.3541     2.0662     2.5623 C.2     
  29 N29           -2.9654     1.5322     1.4295 N.2     
  30 C30           -4.3648     1.4954     3.5234 C.3     
  31 H31            1.4270    -2.1595     0.3552 H       
  32 H32            3.2945    -3.3048     1.5475 H       
  33 H33            6.1996     0.1515    -0.4342 H       
  34 H34            3.7544     0.3372    -0.6461 H       
  35 H35            4.0616     5.6441    -0.2987 H       
  36 H36            3.5993     3.2273    -0.3025 H       
  37 H37           -0.5417     4.1490     0.3819 H       
  38 H38            0.0614     6.5345     0.3573 H       
  39 H39           -1.0910     3.2028    -0.7978 H       
  40 H40           -1.9238     1.6554    -1.0816 H       
  41 H41           -4.4807     2.1700     4.3718 H       
  42 H42           -5.3232     1.3804     3.0171 H       
  43 H43           -4.0215     0.5231     3.8766 H       
@<TRIPOS>BOND
   1    1    2 1
   2    1    5 1
   3    1   24 1
   4    2    3 2
   5    3    4 1
   6    3    6 1
   7    4    5 2
   8    5   19 1
   9    6    7 1
  10    6   31 1
  11    7    8 ar
  12    7   12 ar
  13    8    9 ar
  14    8   32 1
  15    9   10 ar
  16    9   13 1
  17   10   11 ar
  18   10   23 1
  19   11   12 ar
  20   11   33 1
  21   12   34 1
  22   13   14 1
  23   13   15 1
  24   13   16 1
  25   17   18 ar
  26   17   22 ar
  27   17   35 1
  28   18   19 ar
  29   18   36 1
  30   19   20 ar
  31   20   21 ar
  32   20   37 1
  33   21   22 ar
  34   21   38 1
  35   24   25 1
  36   24   39 1
  37   24   40 1
  38   25   26 2
  39   25   29 1
  40   26   27 1
  41   27   28 1
  42   28   29 2
  43   28   30 1
  44   30   41 1
  45   30   42 1
  46   30   43 1

#	End of record

