#	Name: ASD01883680
#	Creating user name:	WinNT
#	Creation time:	15. 06. 2019 19:46

#	Modifying user name:	WinNT
#	Modification time:	15. 06. 2019 19:46

#	Program:	/corina/corina34_cracker 3.40 0067  02.08.2006

@<TRIPOS>MOLECULE
ASD01883680
  51   54    0    0    0
SMALL
NO_CHARGES


@<TRIPOS>ATOM
   1 C1            -1.1279    -0.6656    -1.0135 C.2     
   2 C2            -0.6441    -1.8783    -0.5016 C.2     
   3 C3            -1.5660    -2.8671    -0.0993 C.2     
   4 C4            -2.8924    -2.6607    -0.2008 C.2     
   5 N5            -3.4061    -1.4962    -0.6929 N.pl3   
   6 C6            -2.5781    -0.4818    -1.1008 C.2     
   7 C7            -4.6914    -1.0623    -0.8894 C.2     
   8 C8            -4.6170     0.1816    -1.4082 C.2     
   9 N9            -3.3284     0.5174    -1.5286 N.2     
  10 C10           -5.9515    -1.8301    -0.5834 C.3     
  11 C11           -6.4312    -2.5472    -1.8470 C.3     
  12 C12            0.8103    -2.1168    -0.3858 C.ar    
  13 C13            1.3961    -2.2717     0.8724 C.ar    
  14 C14            2.7539    -2.4941     0.9759 C.ar    
  15 C15            3.5379    -2.5635    -0.1713 C.ar    
  16 C16            2.9571    -2.4098    -1.4235 C.ar    
  17 C17            1.6006    -2.1936    -1.5347 C.ar    
  18 O18            4.8746    -2.7818    -0.0665 O.3     
  19 C19            5.6189    -2.7340    -1.2004 C.ar    
  20 C20            6.1684    -1.5335    -1.6439 C.ar    
  21 C21            6.9191    -1.5266    -2.8017 C.ar    
  22 N22            7.1183    -2.6377    -3.4850 N.ar    
  23 C23            6.6144    -3.7942    -3.0970 C.ar    
  24 C24            5.8575    -3.8854    -1.9473 C.ar    
  25 C25           -7.7105    -3.3268    -1.5364 C.3     
  26 F26           -7.1996    -4.9291    -3.2384 F       
  27 F27           -9.3601    -4.7567    -2.5159 F       
  28 C28           -8.1903    -4.0439    -2.7999 C.3     
  29 F29           -8.4498    -3.1015    -3.8009 F       
  30 F30            3.3226    -2.6442     2.1922 F       
  31 C31            7.5186    -0.2339    -3.2921 C.3     
  32 C32           -0.2287     0.3666    -1.4336 C.1     
  33 N33            0.4846     1.1856    -1.7669 N.1     
  34 H34           -1.2022    -3.8042     0.2957 H       
  35 H35           -3.5698    -3.4398     0.1163 H       
  36 H36           -5.4580     0.8030    -1.6783 H       
  37 H37           -5.7493    -2.5643     0.1964 H       
  38 H38           -6.7233    -1.1405    -0.2418 H       
  39 H39           -6.6334    -1.8130    -2.6268 H       
  40 H40           -5.6594    -3.2369    -2.1886 H       
  41 H41            0.7875    -2.2171     1.7629 H       
  42 H42            3.5689    -2.4643    -2.3118 H       
  43 H43            1.1505    -2.0742    -2.5091 H       
  44 H44            6.0088    -0.6205    -1.0895 H       
  45 H45            6.8007    -4.6810    -3.6846 H       
  46 H46            5.4484    -4.8350    -1.6353 H       
  47 H47           -7.5083    -4.0610    -0.7565 H       
  48 H48           -8.4824    -2.6371    -1.1948 H       
  49 H49            8.5117    -0.1074    -2.8611 H       
  50 H50            7.5946    -0.2580    -4.3792 H       
  51 H51            6.8830     0.5987    -2.9907 H       
@<TRIPOS>BOND
   1    1    2 2
   2    1   32 1
   3    1    6 1
   4    2    3 1
   5    2   12 1
   6    3    4 2
   7    3   34 1
   8    4    5 1
   9    4   35 1
  10    5    6 1
  11    5    7 1
  12    6    9 2
  13    7    8 2
  14    7   10 1
  15    8    9 1
  16    8   36 1
  17   10   11 1
  18   10   37 1
  19   10   38 1
  20   11   25 1
  21   11   39 1
  22   11   40 1
  23   12   13 ar
  24   12   17 ar
  25   13   14 ar
  26   13   41 1
  27   14   15 ar
  28   14   30 1
  29   15   16 ar
  30   15   18 1
  31   16   17 ar
  32   16   42 1
  33   17   43 1
  34   18   19 1
  35   19   20 ar
  36   19   24 ar
  37   20   21 ar
  38   20   44 1
  39   21   22 ar
  40   21   31 1
  41   22   23 ar
  42   23   24 ar
  43   23   45 1
  44   24   46 1
  45   25   28 1
  46   25   47 1
  47   25   48 1
  48   26   28 1
  49   27   28 1
  50   28   29 1
  51   31   49 1
  52   31   50 1
  53   31   51 1
  54   32   33 3

#	End of record

