#	Name: ASD01900191
#	Creating user name:	WinNT
#	Creation time:	15. 06. 2019 19:51

#	Modifying user name:	WinNT
#	Modification time:	15. 06. 2019 19:51

#	Program:	/corina/corina34_cracker 3.40 0067  02.08.2006

@<TRIPOS>MOLECULE
ASD01900191
  33   36    0    0    0
SMALL
NO_CHARGES


@<TRIPOS>ATOM
   1 N1            -0.0167     1.3829     0.0096 N.pl3   
   2 S2            -1.2931    -1.1093     0.1225 S.3     
   3 C3             0.0705    -0.0014    -0.0081 C.2     
   4 N4             1.1699    -0.6827    -0.1241 N.2     
   5 C5             1.0652    -1.9998    -0.1383 C.2     
   6 C6             2.1452    -3.0079    -0.4030 C.2     
   7 C7             1.8840    -4.0983    -1.2577 C.2     
   8 C8             0.6074    -4.2428    -2.0287 C.3     
   9 C9            -0.5699    -4.6972    -1.1487 C.3     
  10 C10           -0.5094    -3.9306     0.1818 C.3     
  11 C11           -0.1925    -2.4755     0.0345 C.2     
  12 N12            2.9432    -4.8546    -1.2586 N.2     
  13 N13            3.9220    -4.2496    -0.4539 N.pl3   
  14 C14            3.4048    -3.1031     0.0537 C.2     
  15 C15            1.1421     2.1530     0.0091 C.ar    
  16 C16            1.0490     3.5372    -0.0856 C.ar    
  17 C17            2.2086     4.2926    -0.0851 C.ar    
  18 C18            3.4272     3.6360     0.0104 C.ar    
  19 C19            3.4473     2.2553     0.1018 C.ar    
  20 N20            2.3231     1.5612     0.1043 N.ar    
  21 F21            4.6305     1.6097     0.1950 F       
  22 H22           -0.8856     1.8140     0.0184 H       
  23 H23            0.3588    -3.2826    -2.4807 H       
  24 H24            0.7566    -4.9748    -2.8224 H       
  25 H25           -1.5106    -4.4792    -1.6545 H       
  26 H26           -0.4929    -5.7677    -0.9584 H       
  27 H27           -1.4732    -4.0269     0.6818 H       
  28 H28            0.2522    -4.3895     0.8123 H       
  29 H29            4.8144    -4.5924    -0.2893 H       
  30 H30            3.9092    -2.4009     0.7009 H       
  31 H31            0.0840     4.0167    -0.1589 H       
  32 H32            2.1659     5.3693    -0.1578 H       
  33 H33            4.3503     4.1966     0.0131 H       
@<TRIPOS>BOND
   1    1    3 1
   2    1   15 1
   3    1   22 1
   4    2    3 1
   5    2   11 1
   6    3    4 2
   7    4    5 1
   8    5    6 1
   9    5   11 2
  10    6    7 1
  11    6   14 2
  12    7    8 1
  13    7   12 2
  14    8    9 1
  15    8   23 1
  16    8   24 1
  17    9   10 1
  18    9   25 1
  19    9   26 1
  20   10   11 1
  21   10   27 1
  22   10   28 1
  23   12   13 1
  24   13   14 1
  25   13   29 1
  26   14   30 1
  27   15   16 ar
  28   15   20 ar
  29   16   17 ar
  30   16   31 1
  31   17   18 ar
  32   17   32 1
  33   18   19 ar
  34   18   33 1
  35   19   20 ar
  36   19   21 1

#	End of record

