#	Name: ASD01903044
#	Creating user name:	WinNT
#	Creation time:	15. 06. 2019 19:54

#	Modifying user name:	WinNT
#	Modification time:	15. 06. 2019 19:54

#	Program:	/corina/corina34_cracker 3.40 0067  02.08.2006

@<TRIPOS>MOLECULE
ASD01903044
  52   55    0    0    0
SMALL
NO_CHARGES


@<TRIPOS>ATOM
   1 C1             2.2033     1.3263     0.2660 C.ar    
   2 C2             2.1192    -0.0523     0.2715 C.ar    
   3 C3             0.9012    -0.6749     0.0234 C.ar    
   4 C4            -0.2299     0.0892    -0.2296 C.ar    
   5 C5            -0.1452     1.4677    -0.2350 C.ar    
   6 C6             1.0710     2.0900     0.0127 C.ar    
   7 N7             1.1561     3.4878     0.0076 N.am    
   8 C8             0.1281     4.2272     0.4689 C.2     
   9 O9            -0.9050     3.6856     0.8103 O.2     
  10 C10            0.2572     5.7001     0.5598 C.ar    
  11 N11            1.3878     6.2860     0.1854 N.ar    
  12 C12            1.5433     7.5904     0.2502 C.ar    
  13 C13            0.5246     8.4063     0.7153 C.ar    
  14 C14           -0.6734     7.8357     1.1167 C.ar    
  15 C15           -0.8113     6.4594     1.0322 C.ar    
  16 Cl16           3.5341    -1.0072     0.5874 Cl      
  17 N17            0.8154    -2.0718     0.0284 N.3     
  18 C18            1.5709    -2.6498    -1.0918 C.3     
  19 C19            1.5182    -4.1770    -1.0051 C.3     
  20 N20            0.1169    -4.6187    -1.0350 N.3     
  21 C21           -0.6386    -4.0407     0.0852 C.3     
  22 C22           -0.5859    -2.5135    -0.0015 C.3     
  23 C23            0.0268    -6.0849    -1.0298 C.3     
  24 C24           -1.4058    -6.4994    -0.8139 C.ar    
  25 C25           -2.2433    -6.6827    -1.8983 C.ar    
  26 C26           -3.5575    -7.0629    -1.7001 C.ar    
  27 C27           -4.0341    -7.2603    -0.4176 C.ar    
  28 C28           -3.1963    -7.0779     0.6667 C.ar    
  29 C29           -1.8810    -6.7019     0.4684 C.ar    
  30 H30            3.1484     1.8105     0.4630 H       
  31 H31           -1.1760    -0.3944    -0.4227 H       
  32 H32           -1.0253     2.0618    -0.4322 H       
  33 H33            1.9550     3.9239    -0.3280 H       
  34 H34            2.4780     8.0315    -0.0630 H       
  35 H35            0.6626     9.4763     0.7649 H       
  36 H36           -1.4825     8.4503     1.4829 H       
  37 H37           -1.7307     5.9814     1.3363 H       
  38 H38            1.1306    -2.3237    -2.0341 H       
  39 H39            2.6079    -2.3183    -1.0406 H       
  40 H40            2.0535    -4.6079    -1.8512 H       
  41 H41            1.9830    -4.5047    -0.0752 H       
  42 H42           -1.6756    -4.3722     0.0339 H       
  43 H43           -0.1983    -4.3668     1.0274 H       
  44 H44           -1.1212    -2.0826     0.8445 H       
  45 H45           -1.0507    -2.1858    -0.9314 H       
  46 H46            0.3774    -6.4739    -1.9858 H       
  47 H47            0.6457    -6.4841    -0.2262 H       
  48 H48           -1.8710    -6.5285    -2.9002 H       
  49 H49           -4.2120    -7.2054    -2.5473 H       
  50 H50           -5.0610    -7.5566    -0.2628 H       
  51 H51           -3.5688    -7.2318     1.6687 H       
  52 H52           -1.2265    -6.5595     1.3156 H       
@<TRIPOS>BOND
   1    1    2 ar
   2    1    6 ar
   3    1   30 1
   4    2    3 ar
   5    2   16 1
   6    3    4 ar
   7    3   17 1
   8    4    5 ar
   9    4   31 1
  10    5    6 ar
  11    5   32 1
  12    6    7 1
  13    7    8 am
  14    7   33 1
  15    8    9 2
  16    8   10 1
  17   10   11 ar
  18   10   15 ar
  19   11   12 ar
  20   12   13 ar
  21   12   34 1
  22   13   14 ar
  23   13   35 1
  24   14   15 ar
  25   14   36 1
  26   15   37 1
  27   17   18 1
  28   17   22 1
  29   18   19 1
  30   18   38 1
  31   18   39 1
  32   19   20 1
  33   19   40 1
  34   19   41 1
  35   20   21 1
  36   20   23 1
  37   21   22 1
  38   21   42 1
  39   21   43 1
  40   22   44 1
  41   22   45 1
  42   23   24 1
  43   23   46 1
  44   23   47 1
  45   24   25 ar
  46   24   29 ar
  47   25   26 ar
  48   25   48 1
  49   26   27 ar
  50   26   49 1
  51   27   28 ar
  52   27   50 1
  53   28   29 ar
  54   28   51 1
  55   29   52 1

#	End of record

