#	Name: ASD03091439
#	Creating user name:	WinNT
#	Creation time:	15. 06. 2019 20:30

#	Modifying user name:	WinNT
#	Modification time:	15. 06. 2019 20:30

#	Program:	/corina/corina34_cracker 3.40 0067  02.08.2006

@<TRIPOS>MOLECULE
ASD03091439
  30   32    0    0    0
SMALL
NO_CHARGES


@<TRIPOS>ATOM
   1 C1             0.0281     1.6786    -0.0364 C.3     
   2 C2            -0.0046     0.1498    -0.0919 C.3     
   3 N3             0.6579    -0.3988     1.0983 N.3     
   4 C4            -0.0392     0.0043     2.3263 C.3     
   5 C5            -0.0081     1.5286     2.4558 C.3     
   6 C6             1.4478     2.0022     2.5217 C.3     
   7 N7             2.1046     1.6884     1.2455 N.am    
   8 C8             1.4846     2.1536    -0.0027 C.3     
   9 C9            -0.6847     2.1550     1.2328 C.3     
  10 C10            3.2546     0.9861     1.2201 C.2     
  11 O11            3.8149     0.7003     2.2595 O.2     
  12 O12            3.2687     0.6836    -1.2859 O.3     
  13 N13            4.0133     0.2365    -2.1326 N.2     
  14 C14            5.1066    -0.2083    -1.5855 C.2     
  15 N15            5.0098    -0.0067    -0.2632 N.2     
  16 C16            3.8359     0.5624    -0.0761 C.2     
  17 H17           -0.4689     2.0867    -0.9165 H       
  18 H18           -1.0397    -0.1905    -0.1207 H       
  19 H19            0.5150    -0.1923    -0.9869 H       
  20 H20            0.7343    -1.4032     1.0390 H       
  21 H21           -1.0740    -0.3355     2.2847 H       
  22 H22            0.4554    -0.4434     3.1883 H       
  23 H23           -0.5314     1.8288     3.3637 H       
  24 H24            1.4747     3.0785     2.6917 H       
  25 H25            1.9627     1.4888     3.3337 H       
  26 H26            2.0238     1.7399    -0.8549 H       
  27 H27            1.5149     3.2425    -0.0420 H       
  28 H28           -0.6232     3.2413     1.2990 H       
  29 H29           -1.7307     1.8501     1.1992 H       
  30 H30            5.9410    -0.6586    -2.1026 H       
@<TRIPOS>BOND
   1    1    2 1
   2    1    8 1
   3    1    9 1
   4    1   17 1
   5    2    3 1
   6    2   18 1
   7    2   19 1
   8    3    4 1
   9    3   20 1
  10    4    5 1
  11    4   21 1
  12    4   22 1
  13    5    6 1
  14    5    9 1
  15    5   23 1
  16    6    7 1
  17    6   24 1
  18    6   25 1
  19    7    8 1
  20    7   10 am
  21    8   26 1
  22    8   27 1
  23    9   28 1
  24    9   29 1
  25   10   11 2
  26   10   16 1
  27   12   13 1
  28   12   16 1
  29   13   14 2
  30   14   15 1
  31   14   30 1
  32   15   16 2

#	End of record

