#	Name: ASD01940364
#	Creating user name:	WinNT
#	Creation time:	15. 06. 2019 20:12

#	Modifying user name:	WinNT
#	Modification time:	15. 06. 2019 20:12

#	Program:	/corina/corina34_cracker 3.40 0067  02.08.2006

@<TRIPOS>MOLECULE
ASD01940364
  49   52    0    0    0
SMALL
NO_CHARGES


@<TRIPOS>ATOM
   1 C1            -0.1135     1.3206     0.0543 C.ar    
   2 C2             0.5942     1.0629     1.2239 C.ar    
   3 C3             1.8094     0.3824     1.1608 C.ar    
   4 C4             2.3080    -0.0359    -0.0755 C.ar    
   5 C5             1.5997     0.2238    -1.2312 C.ar    
   6 C6             0.3951     0.8978    -1.1735 C.ar    
   7 C7            -1.4103     2.0388     0.1136 C.ar    
   8 C8            -2.1195     2.2969    -1.0591 C.ar    
   9 C9            -3.3254     2.9651    -1.0014 C.ar    
  10 C10           -3.8331     3.3809     0.2269 C.ar    
  11 C11           -3.1265     3.1242     1.3952 C.ar    
  12 C12           -1.9238     2.4511     1.3417 C.ar    
  13 C13            2.5680     0.1048     2.3978 C.2     
  14 O14            2.1332     0.4696     3.4717 O.2     
  15 O15            3.7420    -0.5528     2.3347 O.3     
  16 F16           -4.0133     3.2163    -2.1367 F       
  17 N17           -5.0540     4.0572     0.2842 N.pl3   
  18 C18           -6.2422     3.3869    -0.0367 C.ar    
  19 C19           -6.2796     1.9988    -0.0391 C.ar    
  20 C20           -7.4562     1.3391    -0.3564 C.ar    
  21 C21           -8.5946     2.0614    -0.6715 C.ar    
  22 C22           -8.5631     3.4438    -0.6711 C.ar    
  23 C23           -7.3913     4.1118    -0.3487 C.ar    
  24 F24           -7.4925    -0.0114    -0.3588 F       
  25 F25           -5.1698     1.2920     0.2672 F       
  26 S26           -8.6895     6.3675     0.1541 S.o2    
  27 O27           -8.2698     7.7244     0.1100 O.2     
  28 O28           -9.7398     5.8980    -0.6800 O.2     
  29 N29           -7.3608     5.5127    -0.3422 N.am    
  30 C30           -8.9536     5.8382     1.8690 C.3     
  31 C31          -10.1961     6.3671     2.5881 C.3     
  32 C32          -10.1328     4.9036     2.1463 C.3     
  33 H33            0.2042     1.3889     2.1768 H       
  34 H34            3.2493    -0.5628    -0.1269 H       
  35 H35            1.9889    -0.1010    -2.1848 H       
  36 H36           -0.1544     1.0974    -2.0816 H       
  37 H37           -1.7251     1.9746    -2.0114 H       
  38 H38           -3.5215     3.4481     2.3468 H       
  39 H39           -1.3777     2.2478     2.2511 H       
  40 H40            4.2019    -0.7112     3.1704 H       
  41 H41           -5.0794     4.9909     0.5462 H       
  42 H42           -9.5096     1.5437    -0.9186 H       
  43 H43           -9.4530     4.0038    -0.9178 H       
  44 H44           -6.5615     5.9818    -0.6284 H       
  45 H45           -8.0499     5.6985     2.4623 H       
  46 H46          -10.1101     6.5749     3.6547 H       
  47 H47          -10.8550     7.0330     2.0308 H       
  48 H48          -10.7499     4.6068     1.2982 H       
  49 H49          -10.0051     4.1487     2.9221 H       
@<TRIPOS>BOND
   1    1    2 ar
   2    1    6 ar
   3    1    7 1
   4    2    3 ar
   5    2   33 1
   6    3    4 ar
   7    3   13 1
   8    4    5 ar
   9    4   34 1
  10    5    6 ar
  11    5   35 1
  12    6   36 1
  13    7    8 ar
  14    7   12 ar
  15    8    9 ar
  16    8   37 1
  17    9   10 ar
  18    9   16 1
  19   10   11 ar
  20   10   17 1
  21   11   12 ar
  22   11   38 1
  23   12   39 1
  24   13   14 2
  25   13   15 1
  26   15   40 1
  27   17   18 1
  28   17   41 1
  29   18   19 ar
  30   18   23 ar
  31   19   20 ar
  32   19   25 1
  33   20   21 ar
  34   20   24 1
  35   21   22 ar
  36   21   42 1
  37   22   23 ar
  38   22   43 1
  39   23   29 1
  40   26   27 2
  41   26   28 2
  42   26   29 am
  43   26   30 1
  44   29   44 1
  45   30   31 1
  46   30   32 1
  47   30   45 1
  48   31   32 1
  49   31   46 1
  50   31   47 1
  51   32   48 1
  52   32   49 1

#	End of record

