#	Name: ASD02198014
#	Creating user name:	WinNT
#	Creation time:	15. 06. 2019 20:18

#	Modifying user name:	WinNT
#	Modification time:	15. 06. 2019 20:18

#	Program:	/corina/corina34_cracker 3.40 0067  02.08.2006

@<TRIPOS>MOLECULE
ASD02198014
  53   56    0    0    0
SMALL
NO_CHARGES


@<TRIPOS>ATOM
   1 C1             0.1302     0.6877     0.2098 C.2     
   2 C2            -0.0042    -0.6499     0.2596 C.2     
   3 N3            -1.2232    -1.2654     0.2771 N.pl3   
   4 C4            -2.3409    -0.5043    -0.0546 C.2     
   5 C5            -2.3070     0.8693    -0.1167 C.2     
   6 C6            -1.0308     1.6403     0.1891 C.3     
   7 C7             1.2382    -1.5020     0.2969 C.3     
   8 S8            -3.9430    -1.0978    -0.4439 S.3     
   9 C9            -4.5350     0.5394    -0.6879 C.2     
  10 C10           -3.5137     1.4366    -0.4662 C.2     
  11 C11           -5.8501     0.8808    -1.0540 C.2     
  12 O12           -6.1905     2.0514    -1.0829 O.2     
  13 C13           -6.8202    -0.1809    -1.4041 C.ar    
  14 N14           -3.6870     2.8109    -0.5854 N.pl3   
  15 C15            1.4266     1.2226     0.1814 C.2     
  16 O16            2.1553     1.1013     1.1464 O.2     
  17 C17            1.9158     1.9476    -1.0458 C.3     
  18 C18           -1.1616     2.3183     1.5287 C.ar    
  19 C19           -1.3767     1.5726     2.6724 C.ar    
  20 N20           -1.4926     2.1587     3.8478 N.ar    
  21 C21           -1.4087     3.4681     3.9811 C.ar    
  22 C22           -1.1947     4.2782     2.8823 C.ar    
  23 C23           -1.0620     3.6973     1.6301 C.ar    
  24 C24           -6.3738    -1.3870    -1.9455 C.ar    
  25 C25           -7.2831    -2.3728    -2.2692 C.ar    
  26 C26           -8.6350    -2.1675    -2.0581 C.ar    
  27 C27           -9.0840    -0.9736    -1.5220 C.ar    
  28 C28           -8.1845     0.0179    -1.1887 C.ar    
  29 C29           -9.6226    -3.2487    -2.4140 C.3     
  30 C30           -9.8331    -4.1647    -1.2067 C.3     
  31 H31           -1.3075    -2.2026     0.5126 H       
  32 H32           -0.8648     2.3904    -0.5841 H       
  33 H33            1.5883    -1.5889     1.3255 H       
  34 H34            1.0106    -2.4935    -0.0945 H       
  35 H35            2.0142    -1.0398    -0.3132 H       
  36 H36           -4.5529     3.1708    -0.8337 H       
  37 H37           -2.9420     3.4098    -0.4203 H       
  38 H38            1.2726     2.8056    -1.2415 H       
  39 H39            2.9379     2.2895    -0.8825 H       
  40 H40            1.8908     1.2722    -1.9010 H       
  41 H41           -1.4510     0.4974     2.6025 H       
  42 H42           -1.5087     3.9124     4.9604 H       
  43 H43           -1.1277     5.3499     2.9977 H       
  44 H44           -0.8941     4.3054     0.7535 H       
  45 H45           -5.3188    -1.5483    -2.1111 H       
  46 H46           -6.9389    -3.3066    -2.6886 H       
  47 H47          -10.1406    -0.8192    -1.3603 H       
  48 H48           -8.5362     0.9492    -0.7700 H       
  49 H49          -10.5727    -2.7945    -2.6955 H       
  50 H50           -9.2370    -3.8322    -3.2500 H       
  51 H51          -10.2187    -3.5812    -0.3707 H       
  52 H52          -10.5474    -4.9467    -1.4642 H       
  53 H53           -8.8830    -4.6188    -0.9252 H       
@<TRIPOS>BOND
   1    1    2 2
   2    1   15 1
   3    1    6 1
   4    2    3 1
   5    2    7 1
   6    3    4 1
   7    3   31 1
   8    4    5 2
   9    4    8 1
  10    5    6 1
  11    5   10 1
  12    6   18 1
  13    6   32 1
  14    7   33 1
  15    7   34 1
  16    7   35 1
  17    8    9 1
  18    9   10 2
  19    9   11 1
  20   10   14 1
  21   11   12 2
  22   11   13 1
  23   13   24 ar
  24   13   28 ar
  25   14   36 1
  26   14   37 1
  27   15   16 2
  28   15   17 1
  29   17   38 1
  30   17   39 1
  31   17   40 1
  32   18   19 ar
  33   18   23 ar
  34   19   20 ar
  35   19   41 1
  36   20   21 ar
  37   21   22 ar
  38   21   42 1
  39   22   23 ar
  40   22   43 1
  41   23   44 1
  42   24   25 ar
  43   24   45 1
  44   25   26 ar
  45   25   46 1
  46   26   27 ar
  47   26   29 1
  48   27   28 ar
  49   27   47 1
  50   28   48 1
  51   29   30 1
  52   29   49 1
  53   29   50 1
  54   30   51 1
  55   30   52 1
  56   30   53 1

#	End of record

