#	Name: ASD01148526
#	Creating user name:	WinNT
#	Creation time:	15. 06. 2019 19:02

#	Modifying user name:	WinNT
#	Modification time:	15. 06. 2019 19:02

#	Program:	/corina/corina34_cracker 3.40 0067  02.08.2006

@<TRIPOS>MOLECULE
ASD01148526
  61   65    0    0    0
SMALL
NO_CHARGES


@<TRIPOS>ATOM
   1 C1            -0.0180     1.4348     0.0450 C.ar    
   2 C2            -0.0166     0.0527     0.0404 C.ar    
   3 C3             1.1813    -0.6373     0.0175 C.ar    
   4 C4             2.3774     0.0551    -0.0013 C.ar    
   5 C5             2.3760     1.4376     0.0023 C.ar    
   6 C6             1.1785     2.1274     0.0266 C.ar    
   7 C7             3.6801     2.1925    -0.0172 C.3     
   8 O8             4.6904     1.4587    -0.7386 O.3     
   9 C9             3.5611     3.4817    -0.8647 C.3     
  10 C10            4.0481     3.0268    -2.2273 C.2     
  11 N11            4.6607     1.8982    -2.0821 N.2     
  12 C12            3.8552     3.7470    -3.4976 C.ar    
  13 C13            4.3787     3.1929    -4.7438 C.ar    
  14 C14            3.1699     4.9538    -3.5193 C.ar    
  15 C15            2.9743     5.6515    -4.6980 C.ar    
  16 C16            3.4544     5.1744    -5.9098 C.ar    
  17 C17            4.1787     3.9064    -5.9492 C.ar    
  18 C18            3.2301     5.9397    -7.1498 C.2     
  19 O19            3.7420     5.5746    -8.1907 O.2     
  20 N20            2.4576     7.0439    -7.1298 N.am    
  21 C21            4.6803     3.3867    -7.1492 C.ar    
  22 C22            5.0709     1.9754    -4.7702 C.ar    
  23 C23            4.1459     2.5120     1.4047 C.3     
  24 F24            4.3106     1.3212     2.1201 F       
  25 F25            5.3644     3.1975     1.3532 F       
  26 F26            3.1886     3.3096     2.0408 F       
  27 N27            2.2445     7.7712    -8.3082 N.pl3   
  28 C28            1.3354     7.2538    -9.3339 C.3     
  29 C29            2.8986     8.9894    -8.5050 C.ar    
  30 C30            2.6884     9.7118    -9.6727 C.ar    
  31 C31            3.3364    10.9162    -9.8639 C.ar    
  32 C32            4.1938    11.4034    -8.8944 C.ar    
  33 C33            4.4057    10.6867    -7.7309 C.ar    
  34 C34            3.7564     9.4843    -7.5308 C.ar    
  35 C35            5.5422     1.4945    -5.9555 C.ar    
  36 C36            5.3502     2.1993    -7.1408 C.ar    
  37 C37            1.1828    -2.1443     0.0136 C.3     
  38 F38           -0.1355    -2.6120     0.0356 F       
  39 F39            1.8225    -2.6069    -1.1414 F       
  40 F40            1.8628    -2.6129     1.1428 F       
  41 H41           -0.9537     1.9739     0.0584 H       
  42 H42           -0.9512    -0.4883     0.0552 H       
  43 H43            3.3131    -0.4839    -0.0185 H       
  44 H44            1.1774     3.2074     0.0298 H       
  45 H45            2.5251     3.8166    -0.9160 H       
  46 H46            4.2035     4.2671    -0.4665 H       
  47 H47            2.7807     5.3569    -2.5960 H       
  48 H48            2.4359     6.5874    -4.6748 H       
  49 H49            2.0492     7.3352    -6.2995 H       
  50 H50            4.5371     3.9231    -8.0756 H       
  51 H51            5.2305     1.4213    -3.8570 H       
  52 H52            0.3262     7.6183    -9.1424 H       
  53 H53            1.6643     7.5939   -10.3159 H       
  54 H54            1.3394     6.1641    -9.3067 H       
  55 H55            2.0192     9.3317   -10.4304 H       
  56 H56            3.1737    11.4782   -10.7717 H       
  57 H57            4.6993    12.3456    -9.0464 H       
  58 H58            5.0762    11.0698    -6.9759 H       
  59 H59            3.9224     8.9250    -6.6219 H       
  60 H60            6.0757     0.5557    -5.9748 H       
  61 H61            5.7363     1.7993    -8.0667 H       
@<TRIPOS>BOND
   1    1    2 ar
   2    1    6 ar
   3    1   41 1
   4    2    3 ar
   5    2   42 1
   6    3    4 ar
   7    3   37 1
   8    4    5 ar
   9    4   43 1
  10    5    6 ar
  11    5    7 1
  12    6   44 1
  13    7    8 1
  14    7    9 1
  15    7   23 1
  16    8   11 1
  17    9   10 1
  18    9   45 1
  19    9   46 1
  20   10   11 2
  21   10   12 1
  22   12   13 ar
  23   12   14 ar
  24   13   22 ar
  25   13   17 ar
  26   14   15 ar
  27   14   47 1
  28   15   16 ar
  29   15   48 1
  30   16   17 ar
  31   16   18 1
  32   17   21 ar
  33   18   19 2
  34   18   20 am
  35   20   27 1
  36   20   49 1
  37   21   36 ar
  38   21   50 1
  39   22   35 ar
  40   22   51 1
  41   23   24 1
  42   23   25 1
  43   23   26 1
  44   27   28 1
  45   27   29 1
  46   28   52 1
  47   28   53 1
  48   28   54 1
  49   29   30 ar
  50   29   34 ar
  51   30   31 ar
  52   30   55 1
  53   31   32 ar
  54   31   56 1
  55   32   33 ar
  56   32   57 1
  57   33   34 ar
  58   33   58 1
  59   34   59 1
  60   35   36 ar
  61   35   60 1
  62   36   61 1
  63   37   38 1
  64   37   39 1
  65   37   40 1

#	End of record

