#	Name: ASD07300441
#	Creating user name:	WinNT
#	Creation time:	15. 06. 2019 21:09

#	Modifying user name:	WinNT
#	Modification time:	15. 06. 2019 21:09

#	Program:	/corina/corina34_cracker 3.40 0067  02.08.2006

@<TRIPOS>MOLECULE
ASD07300441
  31   31    0    0    0
SMALL
NO_CHARGES


@<TRIPOS>ATOM
   1 C1            -0.2564     0.7212     1.1082 C.2     
   2 N2             0.0021    -0.0041     0.0020 N.am    
   3 O3             0.5250     0.7095     2.0387 O.2     
   4 O4            -1.3777     1.4632     1.1800 O.3     
   5 C5             2.3387    -0.0468    -0.6368 C.ar    
   6 C6             1.2185    -0.6871    -0.1190 C.ar    
   7 C7             1.3242    -2.0167     0.2777 C.ar    
   8 C8             2.5492    -2.6502     0.1389 C.ar    
   9 C9             3.6176    -1.9474    -0.3844 C.ar    
  10 N10            3.4857    -0.6872    -0.7516 N.ar    
  11 C11            0.1359    -2.7498     0.8447 C.3     
  12 Cl12           2.2245     1.6096    -1.1437 Cl      
  13 C13           -1.5911     2.2188     2.4014 C.3     
  14 C14           -0.4349     3.2006     2.6023 C.3     
  15 C15           -2.9062     2.9939     2.2984 C.3     
  16 C16           -1.6570     1.2582     3.5904 C.3     
  17 H17           -0.6545    -0.0529    -0.7103 H       
  18 H18            2.6674    -3.6815     0.4369 H       
  19 H19            4.5741    -2.4367    -0.4942 H       
  20 H20           -0.4149    -3.2297     0.0357 H       
  21 H21            0.4787    -3.5069     1.5500 H       
  22 H22           -0.5157    -2.0431     1.3586 H       
  23 H23           -0.3880     3.8849     1.7552 H       
  24 H24           -0.5951     3.7678     3.5192 H       
  25 H25            0.5020     2.6484     2.6757 H       
  26 H26           -3.7299     2.2945     2.1552 H       
  27 H27           -3.0664     3.5611     3.2153 H       
  28 H28           -2.8593     3.6782     1.4513 H       
  29 H29           -0.7201     0.7060     3.6637 H       
  30 H30           -1.8172     1.8254     4.5073 H       
  31 H31           -2.4807     0.5588     3.4472 H       
@<TRIPOS>BOND
   1    1    2 am
   2    1    3 2
   3    1    4 1
   4    2    6 1
   5    2   17 1
   6    4   13 1
   7    5    6 ar
   8    5   10 ar
   9    5   12 1
  10    6    7 ar
  11    7    8 ar
  12    7   11 1
  13    8    9 ar
  14    8   18 1
  15    9   10 ar
  16    9   19 1
  17   11   20 1
  18   11   21 1
  19   11   22 1
  20   13   14 1
  21   13   16 1
  22   13   15 1
  23   14   23 1
  24   14   24 1
  25   14   25 1
  26   15   26 1
  27   15   27 1
  28   15   28 1
  29   16   29 1
  30   16   30 1
  31   16   31 1

#	End of record

