#	Name: ASD00840181
#	Creating user name:	WinNT
#	Creation time:	15. 06. 2019 18:37

#	Modifying user name:	WinNT
#	Modification time:	15. 06. 2019 18:37

#	Program:	/corina/corina34_cracker 3.40 0067  02.08.2006

@<TRIPOS>MOLECULE
ASD00840181
  96  101    0    0    0
SMALL
NO_CHARGES


@<TRIPOS>ATOM
   1 N1            -0.0148     1.3152     0.0240 N.ar    
   2 C2             0.0024    -0.0071     0.0103 C.ar    
   3 C3             1.2068    -0.6991    -0.0072 C.ar    
   4 C4             2.3929     0.0137    -0.0100 C.ar    
   5 C5             2.3319     1.4006     0.0048 C.ar    
   6 C6             1.0995     2.0222     0.0218 C.ar    
   7 C7             1.2216    -2.2060    -0.0223 C.3     
   8 C8             0.4764    -2.7318    -1.2306 C.2     
   9 N9             2.5989    -2.7049    -0.0113 N.am    
  10 C10            3.4472    -2.3639    -1.0016 C.2     
  11 N11            4.7405    -2.7378    -0.9396 N.am    
  12 O12            3.0455    -1.7191    -1.9509 O.2     
  13 C13            5.6563    -2.4767    -2.0605 C.3     
  14 C14            6.9068    -1.7789    -1.5150 C.3     
  15 N15            7.4744    -2.5812    -0.4231 N.3     
  16 C16            6.5392    -2.6829     0.7052 C.3     
  17 C17            5.2751    -3.4123     0.2531 C.3     
  18 C18            8.7676    -2.0374     0.0125 C.3     
  19 C19            9.2683    -2.8206     1.2292 C.3     
  20 C20           10.6434    -2.2898     1.6409 C.3     
  21 N21           11.5819    -2.4376     0.5211 N.3     
  22 C22           11.1464    -1.6561    -0.6434 C.3     
  23 C23            9.7863    -2.1680    -1.1232 C.3     
  24 C24           12.9449    -2.0667     0.9241 C.3     
  25 O25            0.7580    -2.5323    -2.3933 O.2     
  26 N26           -0.5548    -3.4615    -0.7737 N.am    
  27 C27            0.4463    -2.7554     1.1536 C.ar    
  28 C28           -0.6033    -3.4972     0.6170 C.ar    
  29 C29            0.6096    -2.6407     2.5109 C.ar    
  30 C30           -0.2883    -3.2761     3.3761 C.ar    
  31 C31           -1.3459    -4.0235     2.8439 C.ar    
  32 C32           -1.4984    -4.1321     1.4782 C.ar    
  33 F33           -2.2181    -4.6407     3.6706 F       
  34 C34           -1.0174    -5.8480    -2.0641 C.ar    
  35 C35            0.1617    -6.0100    -2.7766 C.ar    
  36 C36           -1.6960    -6.9554    -1.5929 C.ar    
  37 C37           -1.2007    -8.2240    -1.8305 C.ar    
  38 C38           -0.0254    -8.3881    -2.5406 C.ar    
  39 C39            0.6565    -7.2843    -3.0142 C.ar    
  40 H40            0.3595    -9.3802    -2.7249 H       
  41 O41            0.8309    -4.9224    -3.2416 O.3     
  42 C42            2.0379    -5.1645    -3.9671 C.3     
  43 C43            2.6450    -3.8307    -4.4068 C.3     
  44 C44           13.9122    -2.3511    -0.2267 C.3     
  45 C45           12.9871    -0.5768     1.2694 C.3     
  46 S46           -1.6452    -4.2311    -1.7540 S.o2    
  47 O47           -2.8273    -4.4006    -0.9839 O.2     
  48 O48           -1.6199    -3.5454    -2.9984 O.2     
  49 O49           -1.1674    -0.6944     0.0137 O.3     
  50 C50           -3.5779    -0.8664     0.0335 C.3     
  51 C51           -2.3716     0.0748     0.0324 C.3     
  52 C52           -0.1265    -3.1631     4.7944 C.1     
  53 N53            0.0019    -3.0734     5.9196 N.1     
  54 H54            3.3443    -0.4972    -0.0231 H       
  55 H55            3.2389     1.9868     0.0034 H       
  56 H56            1.0465     3.1009     0.0330 H       
  57 H57            2.9005    -3.2806     0.7088 H       
  58 H58            5.9384    -3.4191    -2.5301 H       
  59 H59            5.1668    -1.8325    -2.7909 H       
  60 H60            7.6433    -1.6767    -2.3120 H       
  61 H61            6.6377    -0.7917    -1.1391 H       
  62 H62            7.0089    -3.2364     1.5182 H       
  63 H63            6.2752    -1.6832     1.0501 H       
  64 H64            4.5337    -3.3894     1.0518 H       
  65 H65            5.5176    -4.4454     0.0043 H       
  66 H66            8.6501    -0.9869     0.2786 H       
  67 H67            8.5681    -2.6964     2.0553 H       
  68 H68            9.3476    -3.8774     0.9744 H       
  69 H69           10.5608    -1.2365     1.9088 H       
  70 H70           11.0091    -2.8549     2.4982 H       
  71 H71           11.0614    -0.6058    -0.3647 H       
  72 H72           11.8773    -1.7610    -1.4451 H       
  73 H73            9.8737    -3.2146    -1.4151 H       
  74 H74            9.4561    -1.5776    -1.9779 H       
  75 H75           13.2372    -2.6504     1.7970 H       
  76 H76            1.4291    -2.0620     2.9107 H       
  77 H77           -2.3158    -4.7101     1.0730 H       
  78 H78           -2.6141    -6.8298    -1.0381 H       
  79 H79           -1.7323    -9.0883    -1.4607 H       
  80 H80            1.5740    -7.4130    -3.5693 H       
  81 H81            2.7458    -5.6930    -3.3286 H       
  82 H82            1.8183    -5.7710    -4.8458 H       
  83 H83            1.9372    -3.3022    -5.0453 H       
  84 H84            2.8647    -3.2243    -3.5281 H       
  85 H85            3.5658    -4.0155    -4.9602 H       
  86 H86           14.9236    -2.0759     0.0723 H       
  87 H87           13.8822    -3.4126    -0.4727 H       
  88 H88           13.6199    -1.7674    -1.0997 H       
  89 H89           12.2980    -0.3742     2.0893 H       
  90 H90           13.9985    -0.3016     1.5684 H       
  91 H91           12.6948     0.0069     0.3965 H       
  92 H92           -3.5563    -1.4858    -0.8631 H       
  93 H93           -3.5403    -1.5041     0.9167 H       
  94 H94           -4.4964    -0.2797     0.0478 H       
  95 H95           -2.3932     0.6942     0.9290 H       
  96 H96           -2.4092     0.7125    -0.8508 H       
@<TRIPOS>BOND
   1    1    2 ar
   2    1    6 ar
   3    2    3 ar
   4    2   49 1
   5    3    4 ar
   6    3    7 1
   7    4    5 ar
   8    4   54 1
   9    5    6 ar
  10    5   55 1
  11    6   56 1
  12    7    8 1
  13    7    9 1
  14    7   27 1
  15    8   25 2
  16    8   26 am
  17    9   10 am
  18    9   57 1
  19   10   11 am
  20   10   12 2
  21   11   13 1
  22   11   17 1
  23   13   14 1
  24   13   58 1
  25   13   59 1
  26   14   15 1
  27   14   60 1
  28   14   61 1
  29   15   16 1
  30   15   18 1
  31   16   17 1
  32   16   62 1
  33   16   63 1
  34   17   64 1
  35   17   65 1
  36   18   19 1
  37   18   23 1
  38   18   66 1
  39   19   20 1
  40   19   67 1
  41   19   68 1
  42   20   21 1
  43   20   69 1
  44   20   70 1
  45   21   22 1
  46   21   24 1
  47   22   23 1
  48   22   71 1
  49   22   72 1
  50   23   73 1
  51   23   74 1
  52   24   44 1
  53   24   45 1
  54   24   75 1
  55   26   46 am
  56   26   28 1
  57   27   28 ar
  58   27   29 ar
  59   28   32 ar
  60   29   30 ar
  61   29   76 1
  62   30   31 ar
  63   30   52 1
  64   31   32 ar
  65   31   33 1
  66   32   77 1
  67   34   35 ar
  68   34   36 ar
  69   34   46 1
  70   35   41 1
  71   35   39 ar
  72   36   37 ar
  73   36   78 1
  74   37   38 ar
  75   37   79 1
  76   38   39 ar
  77   38   40 1
  78   39   80 1
  79   41   42 1
  80   42   43 1
  81   42   81 1
  82   42   82 1
  83   43   83 1
  84   43   84 1
  85   43   85 1
  86   44   86 1
  87   44   87 1
  88   44   88 1
  89   45   89 1
  90   45   90 1
  91   45   91 1
  92   46   47 2
  93   46   48 2
  94   49   51 1
  95   50   51 1
  96   50   92 1
  97   50   93 1
  98   50   94 1
  99   51   95 1
 100   51   96 1
 101   52   53 3

#	End of record

