#	Name: ASD01883704
#	Creating user name:	WinNT
#	Creation time:	15. 06. 2019 19:46

#	Modifying user name:	WinNT
#	Modification time:	15. 06. 2019 19:46

#	Program:	/corina/corina34_cracker 3.40 0067  02.08.2006

@<TRIPOS>MOLECULE
ASD01883704
  53   56    0    0    0
SMALL
NO_CHARGES


@<TRIPOS>ATOM
   1 C1            -0.0203     1.3940     0.0180 C.2     
   2 C2            -0.0002    -0.0080     0.0004 C.2     
   3 C3            -1.2238    -0.7096    -0.0022 C.2     
   4 C4            -2.3992    -0.0534     0.0116 C.2     
   5 N5            -2.4648     1.3095     0.0285 N.pl3   
   6 C6            -1.3211     2.0663     0.0392 C.2     
   7 C7            -3.5197     2.1847     0.0439 C.2     
   8 C8            -3.0028     3.4315     0.0568 C.2     
   9 N9            -1.6687     3.3405     0.0547 N.2     
  10 C10           -4.9825     1.8227     0.0457 C.3     
  11 C11           -5.5140     1.8401    -1.3889 C.3     
  12 C12            1.2843    -0.7399    -0.0158 C.ar    
  13 C13            1.6456    -1.5436     1.0672 C.ar    
  14 C14            2.8438    -2.2245     1.0489 C.ar    
  15 C15            3.6922    -2.1119    -0.0447 C.ar    
  16 C16            3.3367    -1.3122    -1.1253 C.ar    
  17 C17            2.1368    -0.6335    -1.1171 C.ar    
  18 F18           -4.8051     0.9128    -2.1601 F       
  19 F19           -6.8720     1.5040    -1.3872 F       
  20 F20           -5.3508     3.1193    -1.9312 F       
  21 O21            4.8724    -2.7841    -0.0586 O.3     
  22 C22            5.2309    -3.4901     1.1309 C.3     
  23 C23            6.7519    -3.6438     1.1940 C.3     
  24 C24            7.1358    -4.3997     2.4676 C.3     
  25 C25            6.4834    -5.7836     2.4555 C.3     
  26 C26            4.9624    -5.6299     2.3925 C.3     
  27 C27            4.5786    -4.8740     1.1189 C.3     
  28 O28            6.8419    -6.4896     3.6451 O.3     
  29 Cl29           4.4015    -1.1747    -2.4896 Cl      
  30 C30            6.9681    -6.5653     1.2329 C.3     
  31 C31            1.1975     2.1474     0.0211 C.1     
  32 N32            2.1636     2.7450     0.0236 N.1     
  33 H33           -1.2177    -1.7895    -0.0157 H       
  34 H34           -3.3172    -0.6224     0.0089 H       
  35 H35           -3.5717     4.3494     0.0702 H       
  36 H36           -5.1097     0.8260     0.4682 H       
  37 H37           -5.5349     2.5451     0.6466 H       
  38 H38            0.9869    -1.6314     1.9186 H       
  39 H39            3.1236    -2.8462     1.8865 H       
  40 H40            1.8608    -0.0128    -1.9567 H       
  41 H41            4.8856    -2.9333     2.0020 H       
  42 H42            7.0972    -4.2007     0.3229 H       
  43 H43            7.2166    -2.6579     1.2025 H       
  44 H44            8.2193    -4.5092     2.5125 H       
  45 H45            6.7904    -3.8428     3.3387 H       
  46 H46            4.4977    -6.6158     2.3839 H       
  47 H47            4.6171    -5.0730     3.2636 H       
  48 H48            3.4950    -4.7646     1.0740 H       
  49 H49            4.9239    -5.4309     0.2478 H       
  50 H50            6.4628    -7.3771     3.7051 H       
  51 H51            8.0517    -6.6748     1.2778 H       
  52 H52            6.5034    -7.5512     1.2243 H       
  53 H53            6.6946    -6.0268     0.3255 H       
@<TRIPOS>BOND
   1    1    2 2
   2    1   31 1
   3    1    6 1
   4    2    3 1
   5    2   12 1
   6    3    4 2
   7    3   33 1
   8    4    5 1
   9    4   34 1
  10    5    6 1
  11    5    7 1
  12    6    9 2
  13    7    8 2
  14    7   10 1
  15    8    9 1
  16    8   35 1
  17   10   11 1
  18   10   36 1
  19   10   37 1
  20   11   18 1
  21   11   19 1
  22   11   20 1
  23   12   13 ar
  24   12   17 ar
  25   13   14 ar
  26   13   38 1
  27   14   15 ar
  28   14   39 1
  29   15   16 ar
  30   15   21 1
  31   16   17 ar
  32   16   29 1
  33   17   40 1
  34   21   22 1
  35   22   23 1
  36   22   27 1
  37   22   41 1
  38   23   24 1
  39   23   42 1
  40   23   43 1
  41   24   25 1
  42   24   44 1
  43   24   45 1
  44   25   26 1
  45   25   28 1
  46   25   30 1
  47   26   27 1
  48   26   46 1
  49   26   47 1
  50   27   48 1
  51   27   49 1
  52   28   50 1
  53   30   51 1
  54   30   52 1
  55   30   53 1
  56   31   32 3

#	End of record

