#	Name: ASD02039283
#	Creating user name:	WinNT
#	Creation time:	15. 06. 2019 20:18

#	Modifying user name:	WinNT
#	Modification time:	15. 06. 2019 20:18

#	Program:	/corina/corina34_cracker 3.40 0067  02.08.2006

@<TRIPOS>MOLECULE
ASD02039283
  47   49    0    0    0
SMALL
NO_CHARGES


@<TRIPOS>ATOM
   1 C1            -0.2117     1.3553     0.3624 C.ar    
   2 C2             0.0581    -0.0012     0.3871 C.ar    
   3 C3            -0.9771    -0.9177     0.4137 C.ar    
   4 C4            -2.2891    -0.4817     0.4157 C.ar    
   5 C5            -2.5660     0.8863     0.3914 C.ar    
   6 C6            -1.5172     1.8033     0.3700 C.ar    
   7 C7            -3.9707     1.3618     0.3934 C.ar    
   8 N8            -4.9622     0.4849     0.3042 N.ar    
   9 C9            -6.2236     0.8662     0.3030 C.ar    
  10 C10           -6.5609     2.2036     0.3955 C.ar    
  11 C11           -5.5543     3.1545     0.4906 C.ar    
  12 C12           -4.2386     2.7257     0.4948 C.ar    
  13 C13            0.9228     2.3467     0.3336 C.3     
  14 N14            1.3743     2.5322    -1.0478 N.am    
  15 C15            0.6808     3.4795    -1.9241 C.3     
  16 C16            2.4275     1.8313    -1.5124 C.2     
  17 C17            3.0586     0.8029    -0.6671 C.2     
  18 C18            4.0468    -0.0578    -1.0464 C.2     
  19 C19            1.6292     4.6224    -2.2917 C.3     
  20 N20            2.7669     0.5430     0.6331 N.2     
  21 C21            3.5249    -0.4305     1.0481 C.2     
  22 N22            4.3321    -0.8275     0.0300 N.pl3   
  23 O23            2.8570     2.0478    -2.6294 O.2     
  24 C24            5.3313    -1.8973     0.0867 C.3     
  25 F25           -3.3004    -1.3772     0.4408 F       
  26 C26            0.2307     2.7607    -3.1975 C.3     
  27 H27            1.0816    -0.3460     0.3852 H       
  28 H28           -0.7604    -1.9756     0.4325 H       
  29 H29           -1.7254     2.8628     0.3511 H       
  30 H30           -7.0045     0.1238     0.2285 H       
  31 H31           -7.5977     2.5057     0.3933 H       
  32 H32           -5.7927     4.2053     0.5638 H       
  33 H33           -3.4305     3.4385     0.5679 H       
  34 H34            0.5819     3.3008     0.7356 H       
  35 H35            1.7485     1.9718     0.9384 H       
  36 H36           -0.1902     3.8821    -1.4070 H       
  37 H37            4.5121    -0.1144    -2.0194 H       
  38 H38            2.4283     4.2412    -2.9274 H       
  39 H39            1.0768     5.3951    -2.8264 H       
  40 H40            2.0580     5.0451    -1.3831 H       
  41 H41            3.5159    -0.8524     2.0422 H       
  42 H42            4.8683    -2.8424    -0.1973 H       
  43 H43            6.1458    -1.6706    -0.6013 H       
  44 H44            5.7233    -1.9750     1.1007 H       
  45 H45           -0.3595     1.8840    -2.9306 H       
  46 H46           -0.3751     3.4363    -3.8013 H       
  47 H47            1.1059     2.4496    -3.7678 H       
@<TRIPOS>BOND
   1    1    2 ar
   2    1   13 1
   3    1    6 ar
   4    2    3 ar
   5    2   27 1
   6    3    4 ar
   7    3   28 1
   8    4    5 ar
   9    4   25 1
  10    5    6 ar
  11    5    7 1
  12    6   29 1
  13    7    8 ar
  14    7   12 ar
  15    8    9 ar
  16    9   10 ar
  17    9   30 1
  18   10   11 ar
  19   10   31 1
  20   11   12 ar
  21   11   32 1
  22   12   33 1
  23   13   14 1
  24   13   34 1
  25   13   35 1
  26   14   15 1
  27   14   16 am
  28   15   26 1
  29   15   19 1
  30   15   36 1
  31   16   17 1
  32   16   23 2
  33   17   18 2
  34   17   20 1
  35   18   22 1
  36   18   37 1
  37   19   38 1
  38   19   39 1
  39   19   40 1
  40   20   21 2
  41   21   22 1
  42   21   41 1
  43   22   24 1
  44   24   42 1
  45   24   43 1
  46   24   44 1
  47   26   45 1
  48   26   46 1
  49   26   47 1

#	End of record

