#	Name: ASD00068004
#	Creating user name:	WinNT
#	Creation time:	15. 06. 2019 18:29

#	Modifying user name:	WinNT
#	Modification time:	15. 06. 2019 18:29

#	Program:	/corina/corina34_cracker 3.40 0067  02.08.2006

@<TRIPOS>MOLECULE
ASD00068004
  37   39    0    0    0
SMALL
NO_CHARGES


@<TRIPOS>ATOM
   1 C1            -0.0184     1.5028     0.0103 C.2     
   2 C2             0.0021    -0.0041     0.0020 C.3     
   3 C3             1.4513    -0.4944    -0.0145 C.3     
   4 C4             1.4726    -2.0183    -0.1486 C.3     
   5 O5             1.0197     2.1211     0.0037 O.2     
   6 O6            -1.1898     2.1580     0.0194 O.3     
   7 C7             2.1318    -0.0935     1.2690 C.ar    
   8 C8             3.2468     0.7231     1.2340 C.ar    
   9 C9             3.8714     1.0911     2.4108 C.ar    
  10 C10            3.3806     0.6421     3.6239 C.ar    
  11 C11            2.2647    -0.1751     3.6582 C.ar    
  12 C12            1.6376    -0.5379     2.4811 C.ar    
  13 Cl13           4.1649     1.1034     5.1023 Cl      
  14 C14            0.9030    -2.4128    -1.4868 C.2     
  15 N15           -0.2676    -2.0601    -1.9318 N.2     
  16 C16           -0.4638    -2.5863    -3.1682 C.ar    
  17 C17            0.6920    -3.3180    -3.4899 C.ar    
  18 N18            1.5403    -3.1847    -2.4079 N.pl3   
  19 C19           -1.5179    -2.5279    -4.0833 C.ar    
  20 C20           -1.4141    -3.1863    -5.2886 C.ar    
  21 C21           -0.2696    -3.9078    -5.6012 C.ar    
  22 C22            0.7793    -3.9749    -4.7091 C.ar    
  23 Cl23          -2.7242    -3.1140    -6.4253 Cl      
  24 H24           -0.4983    -0.3791     0.8948 H       
  25 H25           -0.5153    -0.3696    -0.8850 H       
  26 H26            1.9763    -0.0479    -0.8589 H       
  27 H27            2.4995    -2.3756    -0.0712 H       
  28 H28            0.8729    -2.4615     0.6465 H       
  29 H29           -1.1523     3.1243     0.0245 H       
  30 H30            3.6300     1.0732     0.2869 H       
  31 H31            4.7426     1.7287     2.3833 H       
  32 H32            1.8811    -0.5259     4.6049 H       
  33 H33            0.7639    -1.1722     2.5081 H       
  34 H34            2.4256    -3.5714    -2.3204 H       
  35 H35           -2.4110    -1.9688    -3.8464 H       
  36 H36           -0.2008    -4.4200    -6.5495 H       
  37 H37            1.6667    -4.5376    -4.9585 H       
@<TRIPOS>BOND
   1    1    2 1
   2    1    5 2
   3    1    6 1
   4    2    3 1
   5    2   24 1
   6    2   25 1
   7    3    4 1
   8    3    7 1
   9    3   26 1
  10    4   14 1
  11    4   27 1
  12    4   28 1
  13    6   29 1
  14    7    8 ar
  15    7   12 ar
  16    8    9 ar
  17    8   30 1
  18    9   10 ar
  19    9   31 1
  20   10   11 ar
  21   10   13 1
  22   11   12 ar
  23   11   32 1
  24   12   33 1
  25   14   15 2
  26   14   18 1
  27   15   16 1
  28   16   17 ar
  29   16   19 ar
  30   17   18 1
  31   17   22 ar
  32   18   34 1
  33   19   20 ar
  34   19   35 1
  35   20   21 ar
  36   20   23 1
  37   21   22 ar
  38   21   36 1
  39   22   37 1

#	End of record

