#	Name: ASD02039238
#	Creating user name:	WinNT
#	Creation time:	15. 06. 2019 20:17

#	Modifying user name:	WinNT
#	Modification time:	15. 06. 2019 20:17

#	Program:	/corina/corina34_cracker 3.40 0067  02.08.2006

@<TRIPOS>MOLECULE
ASD02039238
  41   44    0    0    0
SMALL
NO_CHARGES


@<TRIPOS>ATOM
   1 N1            -0.0156     1.2982     0.0092 N.2     
   2 C2             0.0021    -0.0041     0.0020 C.2     
   3 S3             1.6909    -0.5166    -0.0169 S.3     
   4 C4             2.1703     1.1819    -0.0123 C.2     
   5 N5             1.0936     1.8980     0.0018 N.2     
   6 N6            -1.1063    -0.8378     0.0085 N.pl3   
   7 C7            -3.4728    -1.3748     0.0287 C.ar    
   8 C8            -3.9357    -1.8982     1.2270 C.ar    
   9 C9            -4.8764    -2.9147     1.1834 C.ar    
  10 C10           -5.3197    -3.3707    -0.0458 C.ar    
  11 N11           -4.8563    -2.8489    -1.1656 N.ar    
  12 C12           -3.9611    -1.8802    -1.1607 C.ar    
  13 Cl13          -6.4980    -4.6437    -0.1150 Cl      
  14 C14            3.5836     1.7048    -0.0226 C.3     
  15 O15            4.0427     1.8630     1.3214 O.3     
  16 C16            5.3084     2.3299     1.4904 C.ar    
  17 C17            6.0909     2.6290     0.3779 C.ar    
  18 C18            7.3753     3.1034     0.5300 C.ar    
  19 C19            7.9015     3.2875     1.8040 C.ar    
  20 C20            7.1140     2.9864     2.9313 C.ar    
  21 C21            5.8097     2.5104     2.7641 C.ar    
  22 N22            9.1864     3.7608     1.9773 N.am    
  23 C23            9.6977     3.9387     3.2079 C.2     
  24 C24            8.9497     3.6514     4.3696 C.2     
  25 C25            7.6810     3.1840     4.2667 C.2     
  26 O26           10.8363     4.3584     3.3232 O.2     
  27 C27           -2.4543    -0.2642     0.0244 C.3     
  28 H28           -0.9890    -1.8006     0.0026 H       
  29 H29           -3.5713    -1.5225     2.1717 H       
  30 H30           -5.2585    -3.3458     2.0969 H       
  31 H31           -3.6050    -1.4779    -2.0976 H       
  32 H32            4.2284     0.9990    -0.5461 H       
  33 H33            3.6108     2.6683    -0.5316 H       
  34 H34            5.6870     2.4874    -0.6137 H       
  35 H35            7.9733     3.3318    -0.3398 H       
  36 H36            5.2012     2.2782     3.6256 H       
  37 H37            9.7285     3.9677     1.2000 H       
  38 H38            9.3892     3.8048     5.3441 H       
  39 H39            7.1014     2.9623     5.1506 H       
  40 H40           -2.5788     0.3464     0.9187 H       
  41 H41           -2.5960     0.3554    -0.8611 H       
@<TRIPOS>BOND
   1    1    2 2
   2    1    5 1
   3    2    3 1
   4    2    6 1
   5    3    4 1
   6    4    5 2
   7    4   14 1
   8    6   27 1
   9    6   28 1
  10    7    8 ar
  11    7   12 ar
  12    7   27 1
  13    8    9 ar
  14    8   29 1
  15    9   10 ar
  16    9   30 1
  17   10   11 ar
  18   10   13 1
  19   11   12 ar
  20   12   31 1
  21   14   15 1
  22   14   32 1
  23   14   33 1
  24   15   16 1
  25   16   17 ar
  26   16   21 ar
  27   17   18 ar
  28   17   34 1
  29   18   19 ar
  30   18   35 1
  31   19   20 ar
  32   19   22 1
  33   20   21 ar
  34   20   25 1
  35   21   36 1
  36   22   23 am
  37   22   37 1
  38   23   24 1
  39   23   26 2
  40   24   25 2
  41   24   38 1
  42   25   39 1
  43   27   40 1
  44   27   41 1

#	End of record

