#	Name: ASD01915780
#	Creating user name:	WinNT
#	Creation time:	15. 06. 2019 20:06

#	Modifying user name:	WinNT
#	Modification time:	15. 06. 2019 20:06

#	Program:	/corina/corina34_cracker 3.40 0067  02.08.2006

@<TRIPOS>MOLECULE
ASD01915780
  52   56    0    0    0
SMALL
NO_CHARGES


@<TRIPOS>ATOM
   1 C1            -0.0042     1.4643     0.2218 C.2     
   2 N2             0.0626     0.1120    -0.0291 N.pl3   
   3 C3            -1.1492    -0.6718    -0.2973 C.3     
   4 C4            -2.3294    -0.0468     0.4446 C.3     
   5 N5            -2.4043     1.3988     0.2637 N.am    
   6 C6            -1.2920     2.1726     0.2722 C.2     
   7 C7             1.2780     1.9015     0.4015 C.2     
   8 C8             2.0748     0.7578     0.2574 C.2     
   9 N9             1.2825    -0.2590     0.0095 N.2     
  10 C10            3.5769     0.7047     0.3669 C.3     
  11 O11            4.0809     2.0129     0.6440 O.3     
  12 C12            5.4276     2.1405     0.7739 C.ar    
  13 O13           -1.3552     3.3863     0.3194 O.2     
  14 C14            5.9852     3.3820     1.0431 C.ar    
  15 C15            6.2468     1.0285     0.6431 C.ar    
  16 C16            7.6155     1.1609     0.7756 C.ar    
  17 C17            8.1691     2.4003     1.0382 C.ar    
  18 C18            7.3544     3.5091     1.1747 C.ar    
  19 C19           -3.6481     1.9976     0.0778 C.ar    
  20 N20           -3.7152     3.2593    -0.3192 N.ar    
  21 C21           -4.8053     1.2633     0.3054 C.ar    
  22 C22           -6.0383     1.8670     0.1180 C.ar    
  23 C23           -6.0731     3.1896    -0.2922 C.ar    
  24 C24           -4.8778     3.8655    -0.5076 C.ar    
  25 N25           -4.9027     5.1929    -0.9193 N.3     
  26 C26           -3.5359     5.7192    -1.0891 C.3     
  27 C27           -5.6251     5.3365    -2.2013 C.3     
  28 C28           -4.8982     6.4891    -2.9380 C.3     
  29 C29           -3.4208     6.2332    -2.5396 C.3     
  30 H30           -1.3520    -0.6731    -1.3682 H       
  31 H31           -1.0038    -1.6957     0.0472 H       
  32 H32           -3.2529    -0.4958     0.0789 H       
  33 H33           -2.2317    -0.2640     1.5083 H       
  34 H34            1.6059     2.9094     0.6091 H       
  35 H35            3.8587     0.0284     1.1739 H       
  36 H36            3.9972     0.3448    -0.5722 H       
  37 H37            5.3492     4.2485     1.1494 H       
  38 H38            5.8148     0.0601     0.4383 H       
  39 H39            8.2535     0.2954     0.6742 H       
  40 H40            9.2394     2.5018     1.1415 H       
  41 H41            7.7893     4.4763     1.3795 H       
  42 H42           -4.7445     0.2333     0.6245 H       
  43 H43           -6.9527     1.3179     0.2879 H       
  44 H44           -7.0183     3.6885    -0.4474 H       
  45 H45           -3.3645     6.5383    -0.3908 H       
  46 H46           -2.8089     4.9251    -0.9183 H       
  47 H47           -5.5587     4.4149    -2.7796 H       
  48 H48           -6.6678     5.5987    -2.0219 H       
  49 H49           -5.0314     6.4083    -4.0168 H       
  50 H50           -5.2378     7.4595    -2.5758 H       
  51 H51           -2.8460     7.1585    -2.5761 H       
  52 H52           -2.9740     5.4750    -3.1829 H       
@<TRIPOS>BOND
   1    1    2 1
   2    1    7 2
   3    1    6 1
   4    2    3 1
   5    2    9 1
   6    3    4 1
   7    3   30 1
   8    3   31 1
   9    4    5 1
  10    4   32 1
  11    4   33 1
  12    5    6 am
  13    5   19 1
  14    6   13 2
  15    7    8 1
  16    7   34 1
  17    8    9 2
  18    8   10 1
  19   10   11 1
  20   10   35 1
  21   10   36 1
  22   11   12 1
  23   12   14 ar
  24   12   15 ar
  25   14   18 ar
  26   14   37 1
  27   15   16 ar
  28   15   38 1
  29   16   17 ar
  30   16   39 1
  31   17   18 ar
  32   17   40 1
  33   18   41 1
  34   19   21 ar
  35   19   20 ar
  36   20   24 ar
  37   21   22 ar
  38   21   42 1
  39   22   23 ar
  40   22   43 1
  41   23   24 ar
  42   23   44 1
  43   24   25 1
  44   25   26 1
  45   25   27 1
  46   26   29 1
  47   26   45 1
  48   26   46 1
  49   27   28 1
  50   27   47 1
  51   27   48 1
  52   28   29 1
  53   28   49 1
  54   28   50 1
  55   29   51 1
  56   29   52 1

#	End of record

