#	Name: ASD00069402
#	Creating user name:	WinNT
#	Creation time:	15. 06. 2019 18:29

#	Modifying user name:	WinNT
#	Modification time:	15. 06. 2019 18:29

#	Program:	/corina/corina34_cracker 3.40 0067  02.08.2006

@<TRIPOS>MOLECULE
ASD00069402
  53   55    0    0    0
SMALL
NO_CHARGES


@<TRIPOS>ATOM
   1 C1            -0.0168     1.3912     0.0097 C.ar    
   2 C2             0.0021    -0.0041     0.0020 C.ar    
   3 N3             1.1731    -0.6338    -0.0125 N.ar    
   4 C4             2.3073     0.0500    -0.0197 C.ar    
   5 N5             2.3207     1.3748    -0.0127 N.ar    
   6 C6             1.1900     2.0673     0.0018 C.ar    
   7 Cl7            1.2237     3.8029     0.0102 Cl      
   8 N8            -1.1823    -0.7230     0.0099 N.3     
   9 C9            -2.0407    -0.3354    -1.1167 C.3     
  10 C10           -1.8841    -0.5669     1.2904 C.3     
  11 C11           -3.1079    -1.4853     1.3181 C.3     
  12 C12           -4.0383    -1.1229     0.1573 C.3     
  13 C13           -3.2692    -1.2469    -1.1609 C.3     
  14 C14           -2.8293    -2.6752    -1.3543 C.2     
  15 N15           -2.1312    -3.0223    -2.4537 N.am    
  16 O16           -3.1033    -3.5123    -0.5206 O.2     
  17 C17           -1.7035    -4.4109    -2.6416 C.3     
  18 C18           -1.5141    -4.6885    -4.1343 C.3     
  19 C19           -1.0675    -6.1387    -4.3306 C.3     
  20 C20            0.2555    -6.3686    -3.5972 C.3     
  21 C21            0.0661    -6.0909    -2.1045 C.3     
  22 C22           -0.3806    -4.6408    -1.9082 C.3     
  23 C23           -0.9416    -0.9388     2.4368 C.3     
  24 N24            3.5088    -0.6366    -0.0344 N.pl3   
  25 C25            4.7742     0.1015    -0.0425 C.3     
  26 H26           -0.9523     1.9309     0.0171 H       
  27 H27           -2.3603     0.6991    -0.9907 H       
  28 H28           -1.4830    -0.4321    -2.0483 H       
  29 H29           -2.2044     0.4686     1.4051 H       
  30 H30           -2.7872    -2.5222     1.2172 H       
  31 H31           -3.6373    -1.3578     2.2623 H       
  32 H32           -4.8902    -1.8028     0.1473 H       
  33 H33           -4.3902    -0.0984     0.2787 H       
  34 H34           -3.9139    -0.9489    -1.9878 H       
  35 H35           -1.9120    -2.3528    -3.1205 H       
  36 H36           -2.4627    -5.0823    -2.2406 H       
  37 H37           -2.4566    -4.5247    -4.6568 H       
  38 H38           -0.7549    -4.0170    -4.5353 H       
  39 H39           -1.8267    -6.8101    -3.9296 H       
  40 H40           -0.9325    -6.3365    -5.3940 H       
  41 H41            0.5737    -7.4016    -3.7370 H       
  42 H42            1.0147    -5.6971    -3.9982 H       
  43 H43           -0.6932    -6.7624    -1.7035 H       
  44 H44            1.0085    -6.2547    -1.5820 H       
  45 H45            0.3786    -3.9693    -2.3092 H       
  46 H46           -0.5155    -4.4429    -0.8449 H       
  47 H47           -0.0703    -0.2841     2.4178 H       
  48 H48           -1.4624    -0.8230     3.3874 H       
  49 H49           -0.6207    -1.9741     2.3221 H       
  50 H50            3.5130    -1.6066    -0.0393 H       
  51 H51            4.8209     0.7329    -0.9298 H       
  52 H52            4.8375     0.7239     0.8501 H       
  53 H53            5.6058    -0.6031    -0.0538 H       
@<TRIPOS>BOND
   1    1    2 ar
   2    1    6 ar
   3    1   26 1
   4    2    3 ar
   5    2    8 1
   6    3    4 ar
   7    4    5 ar
   8    4   24 1
   9    5    6 ar
  10    6    7 1
  11    8    9 1
  12    8   10 1
  13    9   13 1
  14    9   27 1
  15    9   28 1
  16   10   11 1
  17   10   23 1
  18   10   29 1
  19   11   12 1
  20   11   30 1
  21   11   31 1
  22   12   13 1
  23   12   32 1
  24   12   33 1
  25   13   14 1
  26   13   34 1
  27   14   15 am
  28   14   16 2
  29   15   17 1
  30   15   35 1
  31   17   18 1
  32   17   22 1
  33   17   36 1
  34   18   19 1
  35   18   37 1
  36   18   38 1
  37   19   20 1
  38   19   39 1
  39   19   40 1
  40   20   21 1
  41   20   41 1
  42   20   42 1
  43   21   22 1
  44   21   43 1
  45   21   44 1
  46   22   45 1
  47   22   46 1
  48   23   47 1
  49   23   48 1
  50   23   49 1
  51   24   25 1
  52   24   50 1
  53   25   51 1
  54   25   52 1
  55   25   53 1

#	End of record

