#	Name: ASD01810056
#	Creating user name:	WinNT
#	Creation time:	15. 06. 2019 19:23

#	Modifying user name:	WinNT
#	Modification time:	15. 06. 2019 19:23

#	Program:	/corina/corina34_cracker 3.40 0067  02.08.2006

@<TRIPOS>MOLECULE
ASD01810056
  59   63    0    0    0
SMALL
NO_CHARGES


@<TRIPOS>ATOM
   1 Cl1            7.2460    10.2641    -4.4273 Cl      
   2 C2             0.0947     1.1973    -0.6373 C.ar    
   3 C3             0.1369    -0.1853    -0.7084 C.ar    
   4 C4             1.3515    -0.8455    -0.7198 C.ar    
   5 C5             2.5313    -0.1202    -0.6603 C.ar    
   6 C6             2.4882     1.2739    -0.5891 C.ar    
   7 C7             1.2658     1.9275    -0.5777 C.ar    
   8 N8             3.8763    -0.4822    -0.6542 N.am    
   9 C9             4.6174     0.6396    -0.5827 C.2     
  10 N10            3.8089     1.7154    -0.5420 N.am    
  11 C11            4.2437     3.1122    -0.4626 C.3     
  12 C12            5.0617     3.3217     0.8147 C.3     
  13 C13            5.5642     4.7664     0.8617 C.3     
  14 N14            6.3918     5.0369    -0.3208 N.3     
  15 C15            5.6148     4.8882    -1.5580 C.3     
  16 C16            5.1139     3.4470    -1.6772 C.3     
  17 O17            5.8335     0.6756    -0.5585 O.2     
  18 C18            7.0045     6.3696    -0.2409 C.3     
  19 C19            7.9554     6.5674    -1.4247 C.3     
  20 C20            8.5438     7.9791    -1.3696 C.3     
  21 N21            7.4576     8.9659    -1.4211 N.3     
  22 C22            6.5581     8.8260    -0.2688 C.3     
  23 C23            5.9104     7.4396    -0.2910 C.3     
  24 C24            7.9909    10.3318    -1.5098 C.3     
  25 C25            6.8946    11.2722    -1.9394 C.ar    
  26 C26            6.4901    11.3052    -3.2618 C.ar    
  27 C27            5.4830    12.1687    -3.6554 C.ar    
  28 C28            4.8819    12.9975    -2.7273 C.ar    
  29 C29            5.2866    12.9641    -1.4056 C.ar    
  30 C30            6.2889    12.0981    -1.0109 C.ar    
  31 Cl31          -1.3412    -1.0927    -0.7829 Cl      
  32 H32           -0.8576     1.7067    -0.6330 H       
  33 H33            1.3810    -1.9237    -0.7746 H       
  34 H34            1.2292     3.0055    -0.5231 H       
  35 H35            4.2205    -1.3882    -0.6942 H       
  36 H36            3.3710     3.7651    -0.4475 H       
  37 H37            4.4347     3.1260     1.6846 H       
  38 H38            5.9125     2.6402     0.8179 H       
  39 H39            4.7127     5.4469     0.8724 H       
  40 H40            6.1590     4.9150     1.7629 H       
  41 H41            4.7631     5.5681    -1.5359 H       
  42 H42            6.2464     5.1251    -2.4142 H       
  43 H43            5.9654     2.7676    -1.7132 H       
  44 H44            4.5241     3.3409    -2.5877 H       
  45 H45            7.5607     6.4595     0.6921 H       
  46 H46            8.7609     5.8351    -1.3707 H       
  47 H47            7.4069     6.4379    -2.3576 H       
  48 H48            9.1037     8.1033    -0.4427 H       
  49 H49            9.2104     8.1281    -2.2191 H       
  50 H50            7.1273     8.9463     0.6529 H       
  51 H51            5.7823     9.5901    -0.3188 H       
  52 H52            5.3297     7.3238    -1.2061 H       
  53 H53            5.2548     7.3304     0.5729 H       
  54 H54            8.3707    10.6376    -0.5350 H       
  55 H55            8.7999    10.3592    -2.2398 H       
  56 H56            5.1670    12.1951    -4.6878 H       
  57 H57            4.0961    13.6718    -3.0344 H       
  58 H58            4.8168    13.6123    -0.6807 H       
  59 H59            6.6046    12.0724     0.0216 H       
@<TRIPOS>BOND
   1    1   26 1
   2    2    3 ar
   3    2    7 ar
   4    2   32 1
   5    3    4 ar
   6    3   31 1
   7    4    5 ar
   8    4   33 1
   9    5    6 ar
  10    5    8 1
  11    6    7 ar
  12    6   10 1
  13    7   34 1
  14    8    9 am
  15    8   35 1
  16    9   10 am
  17    9   17 2
  18   10   11 1
  19   11   12 1
  20   11   16 1
  21   11   36 1
  22   12   13 1
  23   12   37 1
  24   12   38 1
  25   13   14 1
  26   13   39 1
  27   13   40 1
  28   14   15 1
  29   14   18 1
  30   15   16 1
  31   15   41 1
  32   15   42 1
  33   16   43 1
  34   16   44 1
  35   18   19 1
  36   18   23 1
  37   18   45 1
  38   19   20 1
  39   19   46 1
  40   19   47 1
  41   20   21 1
  42   20   48 1
  43   20   49 1
  44   21   22 1
  45   21   24 1
  46   22   23 1
  47   22   50 1
  48   22   51 1
  49   23   52 1
  50   23   53 1
  51   24   25 1
  52   24   54 1
  53   24   55 1
  54   25   26 ar
  55   25   30 ar
  56   26   27 ar
  57   27   28 ar
  58   27   56 1
  59   28   29 ar
  60   28   57 1
  61   29   30 ar
  62   29   58 1
  63   30   59 1

#	End of record

