#	Name: ASD05490130
#	Creating user name:	WinNT
#	Creation time:	15. 06. 2019 21:01

#	Modifying user name:	WinNT
#	Modification time:	15. 06. 2019 21:01

#	Program:	/corina/corina34_cracker 3.40 0067  02.08.2006

@<TRIPOS>MOLECULE
ASD05490130
  50   51    0    0    0
SMALL
NO_CHARGES


@<TRIPOS>ATOM
   1 N1             0.0584     1.2533     0.1906 N.ar    
   2 C2             1.1639     1.9815     0.1607 C.ar    
   3 C3             2.4084     1.3784     0.0802 C.ar    
   4 C4             2.4880    -0.0117     0.0305 C.ar    
   5 C5             1.3048    -0.7449     0.0641 C.ar    
   6 C6             0.0947    -0.0713     0.1453 C.ar    
   7 O7             1.0767     3.3346     0.2090 O.3     
   8 N8            -1.0929    -0.7931     0.1794 N.pl3   
   9 N9             3.7246    -0.6541    -0.0513 N.am    
  10 C10            4.2500    -1.0682    -1.3547 C.3     
  11 C11            5.0107     0.0749    -1.9758 C.ar    
  12 C12            6.3751     0.1836    -1.7817 C.ar    
  13 C13            4.3448     1.0114    -2.7444 C.ar    
  14 C14            7.0729     1.2322    -2.3509 C.ar    
  15 C15            6.4062     2.1724    -3.1151 C.ar    
  16 C16            5.0423     2.0597    -3.3146 C.ar    
  17 I17            7.4634     3.7622    -3.9775 I       
  18 C18           -0.2342     3.8977     0.2910 C.3     
  19 C19           -0.1318     5.4236     0.3357 C.3     
  20 O20            0.4083     5.9012    -0.8980 O.3     
  21 C21            0.5461     7.3221    -0.9609 C.3     
  22 N22            1.3376    -2.2239     0.0133 N.pl3   
  23 O23            1.4844    -2.8654     1.0383 O.2     
  24 O24            1.2179    -2.7995    -1.0534 O.2     
  25 C25            4.4351    -0.8934     1.0686 C.2     
  26 O26            5.5115    -1.4526     0.9973 O.2     
  27 O27            3.9522    -0.5128     2.2664 O.3     
  28 C28            4.0637    -0.3003     4.6898 C.3     
  29 C29            4.7713    -0.8029     3.4298 C.3     
  30 H30            3.3061     1.9785     0.0558 H       
  31 H31           -1.0725    -1.7623     0.1465 H       
  32 H32           -1.9420    -0.3275     0.2361 H       
  33 H33            4.9174    -1.9199    -1.2234 H       
  34 H34            3.4235    -1.3513    -2.0064 H       
  35 H35            6.8957    -0.5507    -1.1848 H       
  36 H36            3.2797     0.9238    -2.8995 H       
  37 H37            8.1387     1.3174    -2.1986 H       
  38 H38            4.5214     2.7938    -3.9113 H       
  39 H39           -0.8137     3.5978    -0.5822 H       
  40 H40           -0.7274     3.5399     1.1948 H       
  41 H41           -1.1235     5.8499     0.4875 H       
  42 H42            0.5207     5.7201     1.1570 H       
  43 H43           -0.4315     7.7879    -0.8360 H       
  44 H44            1.2127     7.6580    -0.1665 H       
  45 H45            0.9622     7.6044    -1.9280 H       
  46 H46            3.9079     0.7759     4.6143 H       
  47 H47            3.1005    -0.8007     4.7897 H       
  48 H48            4.6786    -0.5180     5.5631 H       
  49 H49            4.9271    -1.8790     3.5053 H       
  50 H50            5.7345    -0.3025     3.3299 H       
@<TRIPOS>BOND
   1    1    2 ar
   2    1    6 ar
   3    2    3 ar
   4    2    7 1
   5    3    4 ar
   6    3   30 1
   7    4    5 ar
   8    4    9 1
   9    5    6 ar
  10    5   22 1
  11    6    8 1
  12    7   18 1
  13    8   31 1
  14    8   32 1
  15    9   10 1
  16    9   25 am
  17   10   11 1
  18   10   33 1
  19   10   34 1
  20   11   12 ar
  21   11   13 ar
  22   12   14 ar
  23   12   35 1
  24   13   16 ar
  25   13   36 1
  26   14   15 ar
  27   14   37 1
  28   15   16 ar
  29   15   17 1
  30   16   38 1
  31   18   19 1
  32   18   39 1
  33   18   40 1
  34   19   20 1
  35   19   41 1
  36   19   42 1
  37   20   21 1
  38   21   43 1
  39   21   44 1
  40   21   45 1
  41   22   23 2
  42   22   24 2
  43   25   26 2
  44   25   27 1
  45   27   29 1
  46   28   29 1
  47   28   46 1
  48   28   47 1
  49   28   48 1
  50   29   49 1
  51   29   50 1

#	End of record

