#	Name: ASD01910267
#	Creating user name:	WinNT
#	Creation time:	15. 06. 2019 19:55

#	Modifying user name:	WinNT
#	Modification time:	15. 06. 2019 19:55

#	Program:	/corina/corina34_cracker 3.40 0067  02.08.2006

@<TRIPOS>MOLECULE
ASD01910267
  44   47    0    0    0
SMALL
NO_CHARGES


@<TRIPOS>ATOM
   1 C1            -0.6140     2.1302    -0.3952 C.2     
   2 C2             0.6118     3.0069    -0.3940 C.3     
   3 C3             1.0930     3.2100     1.0445 C.3     
   4 C4             2.3184     4.1268     1.0496 C.3     
   5 C5             3.4473     3.4681     0.2505 C.3     
   6 N6             2.9467     3.1374    -1.0906 N.am    
   7 C7             1.7213     2.3355    -1.2094 C.3     
   8 C8             3.5992     3.5615    -2.1910 C.2     
   9 O9             3.2145     3.2240    -3.2937 O.2     
  10 N10           -0.6878     0.9096     0.0565 N.2     
  11 N11           -1.8842     0.4637    -0.1024 N.2     
  12 C12           -2.6209     1.3925    -0.6656 C.2     
  13 O13           -1.8307     2.4677    -0.8570 O.3     
  14 C14            4.7819     4.4365    -2.0572 C.ar    
  15 C15            5.8192     4.0849    -1.1908 C.ar    
  16 C16            6.9204     4.9050    -1.0697 C.ar    
  17 C17            6.9994     6.0771    -1.8061 C.ar    
  18 C18            5.9721     6.4312    -2.6675 C.ar    
  19 C19            4.8692     5.6153    -2.8008 C.ar    
  20 F20            8.0810     6.8773    -1.6837 F       
  21 C21           -4.0517     1.2817    -1.0199 C.ar    
  22 C22           -4.7490     0.1015    -0.7568 C.ar    
  23 C23           -6.0838     0.0035    -1.0894 C.ar    
  24 C24           -6.7327     1.0740    -1.6842 C.ar    
  25 C25           -6.0451     2.2481    -1.9475 C.ar    
  26 C26           -4.7117     2.3590    -1.6134 C.ar    
  27 F27           -8.0402     0.9724    -2.0088 F       
  28 H28            0.3685     3.9730    -0.8361 H       
  29 H29            0.2965     3.6652     1.6331 H       
  30 H30            1.3590     2.2459     1.4780 H       
  31 H31            2.0597     5.0825     0.5938 H       
  32 H32            2.6465     4.2898     2.0762 H       
  33 H33            4.2869     4.1582     0.1673 H       
  34 H34            3.7690     2.5572     0.7554 H       
  35 H35            1.9023     1.3323    -0.8236 H       
  36 H36            1.4221     2.2783    -2.2560 H       
  37 H37            5.7585     3.1723    -0.6164 H       
  38 H38            7.7230     4.6342    -0.3997 H       
  39 H39            6.0385     7.3454    -3.2385 H       
  40 H40            4.0698     5.8918    -3.4723 H       
  41 H41           -4.2441    -0.7335    -0.2940 H       
  42 H42           -6.6243    -0.9092    -0.8863 H       
  43 H43           -6.5555     3.0793    -2.4112 H       
  44 H44           -4.1768     3.2745    -1.8187 H       
@<TRIPOS>BOND
   1    1   10 2
   2    1    2 1
   3    1   13 1
   4    2    3 1
   5    2    7 1
   6    2   28 1
   7    3    4 1
   8    3   29 1
   9    3   30 1
  10    4    5 1
  11    4   31 1
  12    4   32 1
  13    5    6 1
  14    5   33 1
  15    5   34 1
  16    6    7 1
  17    6    8 am
  18    7   35 1
  19    7   36 1
  20    8    9 2
  21    8   14 1
  22   10   11 1
  23   11   12 2
  24   12   13 1
  25   12   21 1
  26   14   15 ar
  27   14   19 ar
  28   15   16 ar
  29   15   37 1
  30   16   17 ar
  31   16   38 1
  32   17   18 ar
  33   17   20 1
  34   18   19 ar
  35   18   39 1
  36   19   40 1
  37   21   22 ar
  38   21   26 ar
  39   22   23 ar
  40   22   41 1
  41   23   24 ar
  42   23   42 1
  43   24   25 ar
  44   24   27 1
  45   25   26 ar
  46   25   43 1
  47   26   44 1

#	End of record

