#	Name: ASD01230259
#	Creating user name:	WinNT
#	Creation time:	15. 06. 2019 19:12

#	Modifying user name:	WinNT
#	Modification time:	15. 06. 2019 19:12

#	Program:	/corina/corina34_cracker 3.40 0067  02.08.2006

@<TRIPOS>MOLECULE
ASD01230259
  42   45    0    0    0
SMALL
NO_CHARGES


@<TRIPOS>ATOM
   1 C1             0.5455     0.2625     1.3523 C.ar    
   2 C2             0.0032    -0.0127     0.1063 C.ar    
   3 C3             0.6550     0.4142    -1.0426 C.ar    
   4 C4             2.3856     1.3878     0.2958 C.ar    
   5 C5             3.5021     1.9617     2.6896 C.3     
   6 C6            -1.1017    -2.0537    -0.1027 C.ar    
   7 C7            -2.2568    -2.7924    -0.3123 C.ar    
   8 C8            -2.1877    -4.1645    -0.4381 C.ar    
   9 C9             0.1864    -4.0753    -0.1479 C.ar    
  10 C10            0.1196    -2.7065    -0.0144 C.ar    
  11 C11           -1.9520    -7.0385    -0.1531 C.3     
  12 C12            0.4194    -6.6743     0.0839 C.3     
  13 C13            0.7299    -8.1695    -0.0100 C.3     
  14 C14            1.5291    -7.1681    -0.8464 C.3     
  15 C15            1.8429     1.1127    -0.9451 C.ar    
  16 C16            1.7378     0.9637     1.4472 C.ar    
  17 O17           -1.1649    -0.7000     0.0099 O.3     
  18 O18            2.2717     1.2354     2.6671 O.3     
  19 C19           -0.9715    -4.8270    -0.3717 C.ar    
  20 S20           -3.6774    -5.0911    -0.6710 S.o2    
  21 N21           -3.1411    -6.6506    -0.9412 N.am    
  22 N22           -0.8247    -6.1996    -0.5365 N.3     
  23 O23           -4.3590    -5.0984     0.5758 O.2     
  24 O24           -4.2605    -4.6382    -1.8852 O.2     
  25 H25            0.0377    -0.0648     2.2475 H       
  26 H26            0.2333     0.1998    -2.0135 H       
  27 H27            3.3146     1.9337     0.3693 H       
  28 H28            3.8172     2.1108     3.7224 H       
  29 H29            4.2664     1.3983     2.1543 H       
  30 H30            3.3613     2.9300     2.2093 H       
  31 H31           -3.2121    -2.2926    -0.3769 H       
  32 H32            1.1423    -4.5732    -0.0794 H       
  33 H33            1.0214    -2.1386     0.1604 H       
  34 H34           -2.1599    -6.9050     0.9085 H       
  35 H35           -1.7114    -8.0835    -0.3482 H       
  36 H36            0.7192    -6.1542     0.9937 H       
  37 H37            1.2344    -8.6330     0.8378 H       
  38 H38            0.0109    -8.8010    -0.5319 H       
  39 H39            1.3361    -7.1408    -1.9188 H       
  40 H40            2.5593    -6.9728    -0.5489 H       
  41 H41            2.3485     1.4439    -1.8401 H       
  42 H42           -3.5750    -7.2529    -1.5655 H       
@<TRIPOS>BOND
   1    1    2 ar
   2    1   16 ar
   3    1   25 1
   4    2    3 ar
   5    2   17 1
   6    3   15 ar
   7    3   26 1
   8    4   15 ar
   9    4   27 1
  10    4   16 ar
  11    5   28 1
  12    5   29 1
  13    5   30 1
  14    5   18 1
  15    6    7 ar
  16    6   10 ar
  17    6   17 1
  18    7    8 ar
  19    7   31 1
  20    8   20 1
  21    8   19 ar
  22    9   19 ar
  23    9   32 1
  24    9   10 ar
  25   10   33 1
  26   11   21 1
  27   11   34 1
  28   11   35 1
  29   11   22 1
  30   12   13 1
  31   12   22 1
  32   12   36 1
  33   12   14 1
  34   13   37 1
  35   13   38 1
  36   13   14 1
  37   14   39 1
  38   14   40 1
  39   15   41 1
  40   16   18 1
  41   19   22 1
  42   20   21 am
  43   20   24 2
  44   20   23 2
  45   21   42 1

#	End of record

