#	Name: ASD01885800
#	Creating user name:	WinNT
#	Creation time:	15. 06. 2019 19:50

#	Modifying user name:	WinNT
#	Modification time:	15. 06. 2019 19:50

#	Program:	/corina/corina34_cracker 3.40 0067  02.08.2006

@<TRIPOS>MOLECULE
ASD01885800
  54   57    0    0    0
SMALL
NO_CHARGES


@<TRIPOS>ATOM
   1 C1             0.1792     0.9532     1.2744 C.ar    
   2 C2            -1.1145     1.5140     1.1227 C.ar    
   3 C3            -2.2503     0.7036     1.3750 C.ar    
   4 C4            -2.0365    -0.6122     1.7620 C.ar    
   5 C5            -0.7270    -1.0893     1.8888 C.ar    
   6 N6             0.3171    -0.3189     1.6489 N.ar    
   7 C7             1.1381     3.0530     0.6371 C.ar    
   8 C8            -0.1349     3.6012     0.4954 C.ar    
   9 C9            -1.2489     2.8515     0.7290 C.ar    
  10 C10           -3.6213     1.2441     1.2307 C.ar    
  11 C11           -0.5072    -2.4962     2.3026 C.2     
  12 C12            2.3484     3.9103     0.3707 C.3     
  13 N13            2.8463     4.4618     1.6380 N.3     
  14 C14            1.3060     1.7576     1.0184 C.ar    
  15 N15            0.7469    -2.9733     2.4295 N.am    
  16 O16           -1.4577    -3.2189     2.5274 O.2     
  17 C17            1.8611     5.3711     2.2398 C.3     
  18 C18            2.3825     5.8608     3.5929 C.3     
  19 N19            3.6725     6.5384     3.4017 N.3     
  20 C20            4.6577     5.6291     2.7999 C.3     
  21 C21            4.1362     5.1395     1.4468 C.3     
  22 C22           -4.5722     0.5495     0.4825 C.ar    
  23 C23           -5.8479     1.0567     0.3514 C.ar    
  24 C24           -6.1860     2.2544     0.9615 C.ar    
  25 C25           -5.2448     2.9484     1.7054 C.ar    
  26 C26           -3.9681     2.4466     1.8472 C.ar    
  27 F27           -7.4370     2.7473     0.8302 F       
  28 C28            1.3774     6.8394     4.2035 C.3     
  29 F29            0.1489     6.1946     4.3831 F       
  30 F30            1.8544     7.2867     5.4403 F       
  31 F31            1.2098     7.9316     3.3456 F       
  32 C32            5.1414     4.1609     0.8362 C.3     
  33 H33           -2.8745    -1.2628     1.9641 H       
  34 H34           -0.2404     4.6336     0.1965 H       
  35 H35           -2.2303     3.2864     0.6108 H       
  36 H36            3.1274     3.3052    -0.0931 H       
  37 H37            2.0755     4.7264    -0.2984 H       
  38 H38            2.2997     1.3482     1.1245 H       
  39 H39            1.5057    -2.3963     2.2501 H       
  40 H40            0.8907    -3.8936     2.7002 H       
  41 H41            1.7035     6.2246     1.5804 H       
  42 H42            0.9185     4.8428     2.3829 H       
  43 H43            2.5143     5.0099     4.2614 H       
  44 H44            3.5635     7.3730     2.8453 H       
  45 H45            5.6003     6.1575     2.6568 H       
  46 H46            4.8153     4.7757     3.4593 H       
  47 H47            4.0045     5.9903     0.7784 H       
  48 H48           -4.3096    -0.3837     0.0065 H       
  49 H49           -6.5847     0.5200    -0.2278 H       
  50 H50           -5.5128     3.8817     2.1783 H       
  51 H51           -3.2353     2.9881     2.4271 H       
  52 H52            5.1878     3.2593     1.4471 H       
  53 H53            4.8262     3.8994    -0.1740 H       
  54 H54            6.1262     4.6267     0.8005 H       
@<TRIPOS>BOND
   1    1    6 ar
   2    1   14 ar
   3    1    2 ar
   4    2    3 ar
   5    2    9 ar
   6    3   10 1
   7    3    4 ar
   8    4    5 ar
   9    4   33 1
  10    5   11 1
  11    5    6 ar
  12    7   12 1
  13    7    8 ar
  14    7   14 ar
  15    8    9 ar
  16    8   34 1
  17    9   35 1
  18   10   22 ar
  19   10   26 ar
  20   11   15 am
  21   11   16 2
  22   12   13 1
  23   12   36 1
  24   12   37 1
  25   13   17 1
  26   13   21 1
  27   14   38 1
  28   15   39 1
  29   15   40 1
  30   17   18 1
  31   17   41 1
  32   17   42 1
  33   18   19 1
  34   18   28 1
  35   18   43 1
  36   19   20 1
  37   19   44 1
  38   20   21 1
  39   20   45 1
  40   20   46 1
  41   21   32 1
  42   21   47 1
  43   22   23 ar
  44   22   48 1
  45   23   24 ar
  46   23   49 1
  47   24   25 ar
  48   24   27 1
  49   25   26 ar
  50   25   50 1
  51   26   51 1
  52   28   29 1
  53   28   30 1
  54   28   31 1
  55   32   52 1
  56   32   53 1
  57   32   54 1

#	End of record

