#	Name: ASD00071095
#	Creating user name:	WinNT
#	Creation time:	15. 06. 2019 18:30

#	Modifying user name:	WinNT
#	Modification time:	15. 06. 2019 18:30

#	Program:	/corina/corina34_cracker 3.40 0067  02.08.2006

@<TRIPOS>MOLECULE
ASD00071095
  62   66    0    0    0
SMALL
NO_CHARGES


@<TRIPOS>ATOM
   1 N1            -0.0122     1.4028    -0.0281 N.2     
   2 C2            -0.0241     0.0926    -0.0652 C.2     
   3 N3             1.1565    -0.6111    -0.1186 N.pl3   
   4 C4             2.3069    -0.0075    -0.8082 C.3     
   5 C5             2.3449     1.4596    -0.4536 C.ar    
   6 C6             3.5300     2.1598    -0.4945 C.ar    
   7 C7             3.5480     3.5075    -0.1782 C.ar    
   8 C8             2.3785     4.1554     0.1789 C.ar    
   9 C9             1.1866     3.4628     0.2281 C.ar    
  10 C10            1.1612     2.1022    -0.0853 C.ar    
  11 C11            1.2660    -1.9348     0.4993 C.3     
  12 C12            1.8596    -1.7982     1.8777 C.ar    
  13 C13            1.0819    -1.3250     2.9249 C.ar    
  14 C14            1.6313    -1.2004     4.1924 C.ar    
  15 C15            2.9509    -1.5475     4.4094 C.ar    
  16 C16            3.7238    -2.0183     3.3643 C.ar    
  17 C17            3.1767    -2.1493     2.1010 C.ar    
  18 O18           -0.2157    -0.9838     2.7088 O.3     
  19 C19           -0.9562    -0.5042     3.8330 C.3     
  20 N20           -1.2201    -0.5802    -0.0502 N.pl3   
  21 C21           -2.3548    -0.0851     0.7439 C.3     
  22 C22           -3.5890    -0.0154    -0.1617 C.3     
  23 N23           -3.7997    -1.3223    -0.7984 N.3     
  24 C24           -2.6729    -1.6776    -1.6714 C.3     
  25 C25           -1.4030    -1.8121    -0.8325 C.3     
  26 C26           -5.0681    -1.3488    -1.5390 C.3     
  27 C27           -5.1365    -2.6018    -2.3735 C.ar    
  28 C28           -5.6875    -3.7545    -1.8456 C.ar    
  29 C29           -5.7502    -4.9039    -2.6111 C.ar    
  30 C30           -5.2624    -4.9004    -3.9045 C.ar    
  31 C31           -4.7122    -3.7474    -4.4326 C.ar    
  32 C32           -4.6534    -2.5969    -3.6687 C.ar    
  33 H33            3.2277    -0.4899    -0.4804 H       
  34 H34            2.1928    -0.1233    -1.8860 H       
  35 H35            4.4449     1.6579    -0.7727 H       
  36 H36            4.4783     4.0552    -0.2100 H       
  37 H37            2.3992     5.2078     0.4205 H       
  38 H38            0.2758     3.9712     0.5082 H       
  39 H39            0.2758    -2.3845     0.5731 H       
  40 H40            1.9084    -2.5690    -0.1117 H       
  41 H41            1.0281    -0.8319     5.0090 H       
  42 H42            3.3791    -1.4506     5.3961 H       
  43 H43            4.7553    -2.2884     3.5358 H       
  44 H44            3.7812    -2.5218     1.2872 H       
  45 H45           -1.9744    -0.2684     3.5235 H       
  46 H46           -0.9800    -1.2718     4.6066 H       
  47 H47           -0.4789     0.3933     4.2263 H       
  48 H48           -2.5468    -0.7666     1.5726 H       
  49 H49           -2.1264     0.9088     1.1288 H       
  50 H50           -4.4637     0.2438     0.4349 H       
  51 H51           -3.4344     0.7426    -0.9295 H       
  52 H52           -2.8831    -2.6239    -2.1697 H       
  53 H53           -2.5310    -0.8964    -2.4182 H       
  54 H54           -0.5457    -1.9595    -1.4893 H       
  55 H55           -1.5018    -2.6628    -0.1582 H       
  56 H56           -5.9002    -1.3351    -0.8351 H       
  57 H57           -5.1276    -0.4757    -2.1889 H       
  58 H58           -6.0686    -3.7572    -0.8351 H       
  59 H59           -6.1800    -5.8046    -2.1984 H       
  60 H60           -5.3107    -5.7986    -4.5022 H       
  61 H61           -4.3308    -3.7448    -5.4430 H       
  62 H62           -4.2270    -1.6951    -4.0825 H       
@<TRIPOS>BOND
   1    1    2 2
   2    1   10 1
   3    2    3 1
   4    2   20 1
   5    3    4 1
   6    3   11 1
   7    4    5 1
   8    4   33 1
   9    4   34 1
  10    5    6 ar
  11    5   10 ar
  12    6    7 ar
  13    6   35 1
  14    7    8 ar
  15    7   36 1
  16    8    9 ar
  17    8   37 1
  18    9   10 ar
  19    9   38 1
  20   11   12 1
  21   11   39 1
  22   11   40 1
  23   12   13 ar
  24   12   17 ar
  25   13   14 ar
  26   13   18 1
  27   14   15 ar
  28   14   41 1
  29   15   16 ar
  30   15   42 1
  31   16   17 ar
  32   16   43 1
  33   17   44 1
  34   18   19 1
  35   19   45 1
  36   19   46 1
  37   19   47 1
  38   20   21 1
  39   20   25 1
  40   21   22 1
  41   21   48 1
  42   21   49 1
  43   22   23 1
  44   22   50 1
  45   22   51 1
  46   23   24 1
  47   23   26 1
  48   24   25 1
  49   24   52 1
  50   24   53 1
  51   25   54 1
  52   25   55 1
  53   26   27 1
  54   26   56 1
  55   26   57 1
  56   27   28 ar
  57   27   32 ar
  58   28   29 ar
  59   28   58 1
  60   29   30 ar
  61   29   59 1
  62   30   31 ar
  63   30   60 1
  64   31   32 ar
  65   31   61 1
  66   32   62 1

#	End of record

