#	Name: ASD01890481
#	Creating user name:	WinNT
#	Creation time:	15. 06. 2019 19:51

#	Modifying user name:	WinNT
#	Modification time:	15. 06. 2019 19:51

#	Program:	/corina/corina34_cracker 3.40 0067  02.08.2006

@<TRIPOS>MOLECULE
ASD01890481
  39   41    0    0    0
SMALL
NO_CHARGES


@<TRIPOS>ATOM
   1 C1             1.2060     1.5185    -0.0047 C.2     
   2 C2             1.0287     0.1154     0.0918 C.2     
   3 C3             1.9581    -0.7209    -0.4246 C.2     
   4 O4             2.1948     1.9709    -0.5525 O.2     
   5 C5             0.1866     2.4330     0.5547 C.ar    
   6 C6             0.3582     3.8153     0.4613 C.ar    
   7 C7            -0.5961     4.6625     0.9851 C.ar    
   8 C8            -1.7213     4.1450     1.6024 C.ar    
   9 C9            -1.8974     2.7759     1.6983 C.ar    
  10 C10           -0.9538     1.9175     1.1732 C.ar    
  11 C11            1.7744    -2.1746    -0.3246 C.ar    
  12 C12            2.7352    -3.0427    -0.8585 C.ar    
  13 C13            2.5584    -4.4040    -0.7617 C.ar    
  14 C14            1.4282    -4.9181    -0.1350 C.ar    
  15 C15            0.4711    -4.0605     0.3968 C.ar    
  16 C16            0.6407    -2.6976     0.3101 C.ar    
  17 O17            1.2585    -6.2613    -0.0426 O.3     
  18 C18            1.7849    -6.8981     1.0362 C.ar    
  19 C19            2.3767    -6.1655     2.0553 C.ar    
  20 C20            2.9112    -6.8153     3.1508 C.ar    
  21 C21            2.8572    -8.1945     3.2323 C.ar    
  22 C22            2.2685    -8.9270     2.2180 C.ar    
  23 C23            1.7267    -8.2817     1.1233 C.ar    
  24 H24            0.1516    -0.2859     0.5777 H       
  25 H25            2.8352    -0.3196    -0.9105 H       
  26 H26            1.2362     4.2204    -0.0196 H       
  27 H27           -0.4647     5.7321     0.9135 H       
  28 H28           -2.4651     4.8127     2.0114 H       
  29 H29           -2.7777     2.3784     2.1816 H       
  30 H30           -1.0946     0.8491     1.2447 H       
  31 H31            3.6130    -2.6444    -1.3456 H       
  32 H32            3.2985    -5.0742    -1.1733 H       
  33 H33           -0.4049    -4.4649     0.8821 H       
  34 H34           -0.1010    -2.0325     0.7270 H       
  35 H35            2.4197    -5.0882     1.9918 H       
  36 H36            3.3718    -6.2455     3.9443 H       
  37 H37            3.2760    -8.7007     4.0895 H       
  38 H38            2.2280   -10.0042     2.2838 H       
  39 H39            1.2627    -8.8539     0.3336 H       
@<TRIPOS>BOND
   1    1    2 1
   2    1    4 2
   3    1    5 1
   4    2    3 2
   5    2   24 1
   6    3   11 1
   7    3   25 1
   8    5    6 ar
   9    5   10 ar
  10    6    7 ar
  11    6   26 1
  12    7    8 ar
  13    7   27 1
  14    8    9 ar
  15    8   28 1
  16    9   10 ar
  17    9   29 1
  18   10   30 1
  19   11   12 ar
  20   11   16 ar
  21   12   13 ar
  22   12   31 1
  23   13   14 ar
  24   13   32 1
  25   14   15 ar
  26   14   17 1
  27   15   16 ar
  28   15   33 1
  29   16   34 1
  30   17   18 1
  31   18   19 ar
  32   18   23 ar
  33   19   20 ar
  34   19   35 1
  35   20   21 ar
  36   20   36 1
  37   21   22 ar
  38   21   37 1
  39   22   23 ar
  40   22   38 1
  41   23   39 1

#	End of record

