#	Name: ASD01884507
#	Creating user name:	WinNT
#	Creation time:	15. 06. 2019 19:48

#	Modifying user name:	WinNT
#	Modification time:	15. 06. 2019 19:48

#	Program:	/corina/corina34_cracker 3.40 0067  02.08.2006

@<TRIPOS>MOLECULE
ASD01884507
  57   60    0    0    0
SMALL
NO_CHARGES


@<TRIPOS>ATOM
   1 C1            -0.0168     1.3884     0.0097 C.2     
   2 C2             0.0021    -0.0041     0.0020 C.2     
   3 C3            -1.2095    -0.6965     0.0104 C.2     
   4 C4            -2.3831    -0.0157     0.0252 C.2     
   5 N5            -2.4093     1.3392     0.0327 N.am    
   6 C6            -1.2693     2.0558     0.0312 C.2     
   7 O7            -1.3129     3.2741     0.0380 O.2     
   8 C8            -3.6983     2.0352     0.0483 C.3     
   9 C9             1.2059     2.1337     0.0020 C.1     
  10 N10            2.1759     2.7249    -0.0041 N.1     
  11 N11            1.6901    -1.1066     1.3585 N.3     
  12 C12            2.8290    -2.0352     1.3670 C.3     
  13 C13            3.2431    -2.3172     2.8131 C.3     
  14 N14            2.1012    -2.8822     3.5456 N.3     
  15 C15            0.9623    -1.9536     3.5371 C.3     
  16 C16            0.5482    -1.6716     2.0910 C.3     
  17 C17           -4.1338     2.2698     1.4962 C.3     
  18 C18            1.3105    -0.7515    -0.0155 C.3     
  19 C19            2.4621    -3.2198     4.8520 C.ar    
  20 C20            1.5222    -3.7716     5.7133 C.ar    
  21 C21            1.8825    -4.1047     7.0042 C.ar    
  22 C22            3.1772    -3.8895     7.4398 C.ar    
  23 C23            4.1154    -3.3404     6.5850 C.ar    
  24 C24            3.7632    -3.0099     5.2911 C.ar    
  25 C25           -5.4808     2.9971     1.5127 C.3     
  26 C26           -5.9387     3.1746     2.9636 C.3     
  27 C27           -6.0118     1.8003     3.6361 C.3     
  28 C28           -4.6443     1.1192     3.5376 C.3     
  29 O29           -4.2643     1.0132     2.1641 O.3     
  30 H30           -1.2130    -1.7765     0.0046 H       
  31 H31           -3.3137    -0.5638     0.0308 H       
  32 H32           -3.5999     2.9937    -0.4613 H       
  33 H33           -4.4456     1.4275    -0.4619 H       
  34 H34            2.5411    -2.9683     0.8826 H       
  35 H35            3.6659    -1.5892     0.8295 H       
  36 H36            4.0692    -3.0283     2.8228 H       
  37 H37            3.5569    -1.3883     3.2893 H       
  38 H38            0.1254    -2.3996     4.0746 H       
  39 H39            1.2502    -1.0205     4.0215 H       
  40 H40           -0.2779    -0.9605     2.0813 H       
  41 H41            0.2344    -2.6005     1.6148 H       
  42 H42           -3.3865     2.8771     2.0067 H       
  43 H43            1.2023    -1.6595    -0.6087 H       
  44 H44            2.0835    -0.1207    -0.4544 H       
  45 H45            0.5108    -3.9395     5.3739 H       
  46 H46            1.1522    -4.5334     7.6745 H       
  47 H47            3.4563    -4.1506     8.4499 H       
  48 H48            5.1257    -3.1737     6.9283 H       
  49 H49            4.4964    -2.5814     4.6239 H       
  50 H50           -5.3728     3.9746     1.0426 H       
  51 H51           -6.2190     2.4092     0.9671 H       
  52 H52           -5.2258     3.8039     3.4965 H       
  53 H53           -6.9233     3.6418     2.9807 H       
  54 H54           -6.2835     1.9219     4.6847 H       
  55 H55           -6.7607     1.1882     3.1335 H       
  56 H56           -3.9037     1.7114     4.0750 H       
  57 H57           -4.7018     0.1232     3.9768 H       
@<TRIPOS>BOND
   1    1    2 2
   2    1    9 1
   3    1    6 1
   4    2    3 1
   5    2   18 1
   6    3    4 2
   7    3   30 1
   8    4    5 1
   9    4   31 1
  10    5    6 am
  11    5    8 1
  12    6    7 2
  13    8   17 1
  14    8   32 1
  15    8   33 1
  16    9   10 3
  17   11   12 1
  18   11   16 1
  19   11   18 1
  20   12   13 1
  21   12   34 1
  22   12   35 1
  23   13   14 1
  24   13   36 1
  25   13   37 1
  26   14   15 1
  27   14   19 1
  28   15   16 1
  29   15   38 1
  30   15   39 1
  31   16   40 1
  32   16   41 1
  33   17   25 1
  34   17   29 1
  35   17   42 1
  36   18   43 1
  37   18   44 1
  38   19   20 ar
  39   19   24 ar
  40   20   21 ar
  41   20   45 1
  42   21   22 ar
  43   21   46 1
  44   22   23 ar
  45   22   47 1
  46   23   24 ar
  47   23   48 1
  48   24   49 1
  49   25   26 1
  50   25   50 1
  51   25   51 1
  52   26   27 1
  53   26   52 1
  54   26   53 1
  55   27   28 1
  56   27   54 1
  57   27   55 1
  58   28   29 1
  59   28   56 1
  60   28   57 1

#	End of record

