#	Name: ASD06600009
#	Creating user name:	WinNT
#	Creation time:	15. 06. 2019 21:06

#	Modifying user name:	WinNT
#	Modification time:	15. 06. 2019 21:06

#	Program:	/corina/corina34_cracker 3.40 0067  02.08.2006

@<TRIPOS>MOLECULE
ASD06600009
 232  232    0    0    0
SMALL
NO_CHARGES


@<TRIPOS>ATOM
   1 C1            -1.6495    -0.5387     1.5099 C.2     
   2 O2            -1.8567    -1.7317     1.4406 O.2     
   3 N3             0.6182    -1.1022     2.1769 N.3     
   4 C4            -0.2408    -0.0263     1.6644 C.3     
   5 C5             0.2838     0.4414     0.3053 C.3     
   6 C6             1.6648     1.0756     0.4824 C.3     
   7 C7             2.1893     1.5433    -0.8766 C.3     
   8 N8             3.5116     2.1506    -0.7070 N.pl3   
   9 C9             4.1849     2.6470    -1.7976 C.2     
  10 N10            3.7049     2.4701    -2.9948 N.2     
  11 N11            5.3710     3.3336    -1.6235 N.am    
  12 C12           -4.8984     0.8947     0.6420 C.2     
  13 O13           -4.4095     1.9633     0.3425 O.2     
  14 N14           -2.6787     0.3289     1.4432 N.am    
  15 C15           -4.0476    -0.1689     1.2869 C.3     
  16 C16           -4.6229    -0.5188     2.6608 C.3     
  17 C17           -3.8346    -1.6841     3.2622 C.3     
  18 C18           -4.4013    -2.0287     4.6153 C.2     
  19 O19           -5.3430    -1.4038     5.0554 O.2     
  20 N20           -3.8617    -3.0313     5.3365 N.am    
  21 C21           -8.4732     1.4776     0.1477 C.2     
  22 O22           -8.7807     0.5521     0.8686 O.2     
  23 N23           -6.2027     0.6583     0.3982 N.am    
  24 C24           -7.0298     1.6922    -0.2287 C.3     
  25 C25           -6.8818     1.6112    -1.7494 C.3     
  26 C26           -5.4012     1.7045    -2.1234 C.3     
  27 O27           -7.4131     0.3687    -2.2141 O.3     
  28 C28          -11.7151     2.7119    -1.0054 C.2     
  29 O29          -11.2253     3.2640    -1.9678 O.2     
  30 N30           -9.4223     2.3141    -0.3169 N.am    
  31 C31          -10.8254     2.1055     0.0490 C.3     
  32 C32          -11.1054     2.7720     1.3975 C.3     
  33 C33          -10.2939     2.0731     2.4901 C.3     
  34 C34          -10.5739     2.7397     3.8385 C.3     
  35 N35           -9.7969     2.0704     4.8848 N.pl3   
  36 C36           -9.8866     2.4989     6.1880 C.2     
  37 N37          -10.6631     3.5005     6.4928 N.2     
  38 N38           -9.1575     1.8708     7.1699 N.pl3   
  39 C39          -15.2552     3.5753    -1.2968 C.2     
  40 O40          -15.4640     3.3509    -0.1234 O.2     
  41 N41          -13.0550     2.6407    -0.8790 N.am    
  42 C42          -13.9198     3.2302    -1.9040 C.3     
  43 C43          -14.1207     2.2261    -3.0409 C.3     
  44 O44          -14.8351     1.0893    -2.5516 O.3     
  45 C45          -18.5690     4.4828    -2.5452 C.2     
  46 O46          -18.2652     4.2367    -3.6933 O.2     
  47 N47          -16.2175     4.1333    -2.0578 N.am    
  48 C48          -17.5157     4.4688    -1.4675 C.3     
  49 C49          -17.4369     5.8497    -0.8134 C.3     
  50 O50          -17.2110     6.8405    -1.8181 O.3     
  51 C51          -22.0090     5.6785    -2.8609 C.2     
  52 O52          -21.9439     6.2912    -1.8163 O.2     
  53 N53          -19.8486     4.7687    -2.2332 N.am    
  54 C54          -20.8725     4.7823    -3.2808 C.3     
  55 C55          -21.3972     3.3619    -3.4996 C.3     
  56 C56          -20.2389     2.4466    -3.9017 C.3     
  57 O57          -21.9871     2.8804    -2.2904 O.3     
  58 C58          -25.4930     6.1109    -3.8798 C.2     
  59 O59          -25.4357     5.1893    -4.6661 O.2     
  60 N60          -23.0977     5.7991    -3.6462 N.am    
  61 C61          -24.2411     6.5966    -3.1958 C.3     
  62 C62          -24.0065     8.0674    -3.5459 C.3     
  63 C63          -22.8081     8.5952    -2.7546 C.3     
  64 C64          -22.5770    10.0439    -3.0995 C.2     
  65 O65          -23.2971    10.5975    -3.8963 O.2     
  66 O66          -21.5714    10.7193    -2.5214 O.3     
  67 C67          -28.9040     7.3451    -4.3323 C.2     
  68 O68          -28.6793     8.3922    -3.7632 O.2     
  69 N69          -26.6762     6.7006    -3.6177 N.am    
  70 C70          -27.8932     6.2284    -4.2826 C.3     
  71 C71          -28.4753     5.0479    -3.5026 C.3     
  72 C72          -27.4491     3.9142    -3.4523 C.3     
  73 O73          -28.7901     5.4647    -2.1725 O.3     
  74 C74          -32.3836     7.7719    -5.3681 C.2     
  75 O75          -32.5800     6.5754    -5.3978 O.2     
  76 N76          -30.0577     7.1801    -5.0092 N.am    
  77 C77          -30.9892     8.3015    -5.1533 C.3     
  78 C78          -30.5775     9.1555    -6.3542 C.3     
  79 C79          -29.2345     9.7846    -6.0864 C.ar    
  80 C80          -28.0766     9.1243    -6.4524 C.ar    
  81 C81          -26.8447     9.7014    -6.2067 C.ar    
  82 C82          -26.7708    10.9390    -5.5953 C.ar    
  83 C83          -27.9288    11.5997    -5.2301 C.ar    
  84 C84          -29.1608    11.0246    -5.4798 C.ar    
  85 C85          -34.9742     7.8197    -7.1996 C.2     
  86 O86          -34.0805     8.0204    -7.9876 O.2     
  87 N87          -33.4126     8.6277    -5.5271 N.am    
  88 C88          -34.7681     8.1128    -5.7358 C.3     
  89 C89          -35.7869     9.1578    -5.2765 C.3     
  90 C90          -35.6604     9.3638    -3.7658 C.3     
  91 C91          -36.5907    10.4960    -3.3258 C.3     
  92 C92          -36.0490     8.0737    -3.0408 C.3     
  93 O93          -36.1507     7.3358    -7.6280 O.3     
  94 C94            5.8088     3.6181    -0.3810 C.2     
  95 O95            5.2071     3.1989     0.5846 O.2     
  96 C96           17.7721    11.6232    11.6185 C.3     
  97 C97           16.5158    10.7713    11.4264 C.3     
  98 C98           16.2399    10.5995     9.9313 C.3     
  99 C99           14.9836     9.7476     9.7392 C.3     
 100 C100          14.7076     9.5757     8.2442 C.3     
 101 C101          13.4513     8.7239     8.0520 C.3     
 102 C102          13.1753     8.5520     6.5570 C.3     
 103 C103          11.9190     7.7001     6.3649 C.3     
 104 C104          11.6430     7.5283     4.8698 C.3     
 105 C105          10.3868     6.6764     4.6777 C.3     
 106 C106          10.1108     6.5046     3.1826 C.3     
 107 C107           8.8545     5.6527     2.9905 C.3     
 108 C108           8.5785     5.4809     1.4955 C.3     
 109 C109           7.3222     4.6290     1.3033 C.3     
 110 C110           7.0462     4.4572    -0.1917 C.3     
 111 H111           0.6276    -1.8892     1.5455 H       
 112 H112           1.5538    -0.7664     2.3502 H       
 113 H113          -0.2328     0.8094     2.3641 H       
 114 H114           0.3597    -0.4123    -0.3682 H       
 115 H115          -0.4024     1.1764    -0.1155 H       
 116 H116           1.5889     1.9293     1.1560 H       
 117 H117           2.3509     0.3406     0.9033 H       
 118 H118           2.2652     0.6897    -1.5501 H       
 119 H119           1.5032     2.2783    -1.2975 H       
 120 H120           3.9121     2.2025     0.1749 H       
 121 H121           4.1403     2.8817    -3.7576 H       
 122 H122           5.8887     3.6110    -2.3955 H       
 123 H123          -2.5130     1.2831     1.4987 H       
 124 H124          -4.0408    -1.0594     0.6584 H       
 125 H125          -4.5480     0.3479     3.3175 H       
 126 H126          -5.6694    -0.8047     2.5544 H       
 127 H127          -3.9095    -2.5508     2.6054 H       
 128 H128          -2.7882    -1.3982     3.3686 H       
 129 H129          -3.1085    -3.5310     4.9845 H       
 130 H130          -4.2265    -3.2531     6.2075 H       
 131 H131          -6.5937    -0.1965     0.6378 H       
 132 H132          -6.7066     2.6745     0.1159 H       
 133 H133          -7.4259     2.4347    -2.2118 H       
 134 H134          -4.8570     0.8809    -1.6610 H       
 135 H135          -5.2957     1.6467    -3.2068 H       
 136 H136          -4.9959     2.6522    -1.7689 H       
 137 H137          -7.3526     0.2487    -3.1717 H       
 138 H138          -9.1764     3.0544    -0.8935 H       
 139 H139         -11.0265     1.0368     0.1233 H       
 140 H140         -10.8205     3.8230     1.3494 H       
 141 H141         -12.1679     2.6938     1.6278 H       
 142 H142         -10.5789     1.0221     2.5382 H       
 143 H143          -9.2314     2.1513     2.2598 H       
 144 H144         -10.2889     3.7906     3.7904 H       
 145 H145         -11.6364     2.6614     4.0688 H       
 146 H146          -9.2191     1.3250     4.6580 H       
 147 H147         -10.7264     3.8028     7.4123 H       
 148 H148          -8.5797     1.1254     6.9431 H       
 149 H149          -9.2208     2.1731     8.0894 H       
 150 H150         -13.4467     2.1991    -0.1093 H       
 151 H151         -13.4543     4.1345    -2.2960 H       
 152 H152         -14.6899     2.6951    -3.8435 H       
 153 H153         -13.1497     1.9089    -3.4213 H       
 154 H154         -14.9986     0.4099    -3.2201 H       
 155 H155         -16.0506     4.3127    -2.9963 H       
 156 H156         -17.7758     3.7245    -0.7149 H       
 157 H157         -18.3738     6.0616    -0.2982 H       
 158 H158         -16.6162     5.8657    -0.0963 H       
 159 H159         -17.1500     7.7423    -1.4744 H       
 160 H160         -20.0915     4.9655    -1.3150 H       
 161 H161         -20.4386     5.1562    -4.2082 H       
 162 H162         -22.1462     3.3692    -4.2915 H       
 163 H163         -19.5324     2.3703    -3.0752 H       
 164 H164         -20.6251     1.4561    -4.1422 H       
 165 H165         -19.7341     2.8614    -4.7742 H       
 166 H166         -22.7298     3.4136    -1.9756 H       
 167 H167         -23.1242     5.3578    -4.5096 H       
 168 H168         -24.3534     6.4935    -2.1165 H       
 169 H169         -23.8061     8.1593    -4.6133 H       
 170 H170         -24.8937     8.6474    -3.2915 H       
 171 H171         -23.0085     8.5033    -1.6872 H       
 172 H172         -21.9209     8.0152    -3.0089 H       
 173 H173         -21.4626    11.6463    -2.7742 H       
 174 H174         -26.7219     7.4377    -2.9888 H       
 175 H175         -27.6529     5.9105    -5.2972 H       
 176 H176         -29.3808     4.6967    -3.9972 H       
 177 H177         -26.5183     4.2854    -3.0236 H       
 178 H178         -27.8347     3.1022    -2.8358 H       
 179 H179         -27.2633     3.5473    -4.4618 H       
 180 H180         -29.4364     6.1827    -2.1279 H       
 181 H181         -30.2712     6.3188    -5.4010 H       
 182 H182         -30.9671     8.9106    -4.2497 H       
 183 H183         -30.5135     8.5267    -7.2423 H       
 184 H184         -31.3194     9.9375    -6.5154 H       
 185 H185         -28.1343     8.1574    -6.9301 H       
 186 H186         -25.9400     9.1852    -6.4920 H       
 187 H187         -25.8084    11.3895    -5.4027 H       
 188 H188         -27.8711    12.5665    -4.7522 H       
 189 H189         -30.0656    11.5424    -5.1978 H       
 190 H190         -33.2555     9.5846    -5.5033 H       
 191 H191         -34.9017     7.1973    -5.1596 H       
 192 H192         -35.5965    10.1007    -5.7890 H       
 193 H193         -36.7934     8.8125    -5.5131 H       
 194 H194         -34.6308     9.6231    -3.5194 H       
 195 H195         -37.6203    10.2368    -3.5722 H       
 196 H196         -36.5006    10.6428    -2.2495 H       
 197 H197         -36.3139    11.4151    -3.8423 H       
 198 H198         -37.0786     7.8144    -3.2872 H       
 199 H199         -35.3862     7.2671    -3.3543 H       
 200 H200         -35.9588     8.2205    -1.9645 H       
 201 H201         -36.2355     7.1634    -8.5757 H       
 202 H202          17.6210    12.6014    11.1622 H       
 203 H203          17.9687    11.7456    12.6836 H       
 204 H204          18.6216    11.1294    11.1466 H       
 205 H205          16.6669     9.7930    11.8828 H       
 206 H206          15.6664    11.2650    11.8983 H       
 207 H207          16.0888    11.5777     9.4750 H       
 208 H208          17.0893    10.1057     9.4594 H       
 209 H209          15.1347     8.7693    10.1956 H       
 210 H210          14.1341    10.2413    10.2111 H       
 211 H211          14.5565    10.5540     7.7878 H       
 212 H212          15.5571     9.0820     7.7723 H       
 213 H213          13.6024     7.7456     8.5084 H       
 214 H214          12.6018     9.2176     8.5239 H       
 215 H215          13.0242     9.5303     6.1006 H       
 216 H216          14.0248     8.0583     6.0851 H       
 217 H217          12.0701     6.7219     6.8212 H       
 218 H218          11.0695     8.1939     6.8368 H       
 219 H219          11.4920     8.5066     4.4134 H       
 220 H220          12.4925     7.0346     4.3979 H       
 221 H221          10.5378     5.6982     5.1340 H       
 222 H222           9.5373     7.1702     5.1496 H       
 223 H223           9.9597     7.4829     2.7263 H       
 224 H224          10.9603     6.0109     2.7107 H       
 225 H225           9.0056     4.6745     3.4469 H       
 226 H226           8.0050     6.1465     3.4624 H       
 227 H227           8.4274     6.4592     1.0391 H       
 228 H228           9.4280     4.9871     1.0236 H       
 229 H229           7.4733     3.6507     1.7597 H       
 230 H230           6.4727     5.1228     1.7752 H       
 231 H231           7.8957     3.9634    -0.6636 H       
 232 H232           6.8951     5.4355    -0.6481 H       
@<TRIPOS>BOND
   1    1    2 2
   2    1    4 1
   3    1   14 am
   4    3    4 1
   5    3  111 1
   6    3  112 1
   7    4    5 1
   8    4  113 1
   9    5    6 1
  10    5  114 1
  11    5  115 1
  12    6    7 1
  13    6  116 1
  14    6  117 1
  15    7    8 1
  16    7  118 1
  17    7  119 1
  18    8    9 1
  19    8  120 1
  20    9   10 2
  21    9   11 1
  22   10  121 1
  23   11   94 am
  24   11  122 1
  25   12   13 2
  26   12   15 1
  27   12   23 am
  28   14   15 1
  29   14  123 1
  30   15   16 1
  31   15  124 1
  32   16   17 1
  33   16  125 1
  34   16  126 1
  35   17   18 1
  36   17  127 1
  37   17  128 1
  38   18   19 2
  39   18   20 am
  40   20  129 1
  41   20  130 1
  42   21   22 2
  43   21   24 1
  44   21   30 am
  45   23   24 1
  46   23  131 1
  47   24   25 1
  48   24  132 1
  49   25   26 1
  50   25   27 1
  51   25  133 1
  52   26  134 1
  53   26  135 1
  54   26  136 1
  55   27  137 1
  56   28   29 2
  57   28   31 1
  58   28   41 am
  59   30   31 1
  60   30  138 1
  61   31   32 1
  62   31  139 1
  63   32   33 1
  64   32  140 1
  65   32  141 1
  66   33   34 1
  67   33  142 1
  68   33  143 1
  69   34   35 1
  70   34  144 1
  71   34  145 1
  72   35   36 1
  73   35  146 1
  74   36   37 2
  75   36   38 1
  76   37  147 1
  77   38  148 1
  78   38  149 1
  79   39   40 2
  80   39   42 1
  81   39   47 am
  82   41   42 1
  83   41  150 1
  84   42   43 1
  85   42  151 1
  86   43   44 1
  87   43  152 1
  88   43  153 1
  89   44  154 1
  90   45   46 2
  91   45   48 1
  92   45   53 am
  93   47   48 1
  94   47  155 1
  95   48   49 1
  96   48  156 1
  97   49   50 1
  98   49  157 1
  99   49  158 1
 100   50  159 1
 101   51   52 2
 102   51   54 1
 103   51   60 am
 104   53   54 1
 105   53  160 1
 106   54   55 1
 107   54  161 1
 108   55   56 1
 109   55   57 1
 110   55  162 1
 111   56  163 1
 112   56  164 1
 113   56  165 1
 114   57  166 1
 115   58   59 2
 116   58   61 1
 117   58   69 am
 118   60   61 1
 119   60  167 1
 120   61   62 1
 121   61  168 1
 122   62   63 1
 123   62  169 1
 124   62  170 1
 125   63   64 1
 126   63  171 1
 127   63  172 1
 128   64   65 2
 129   64   66 1
 130   66  173 1
 131   67   68 2
 132   67   70 1
 133   67   76 am
 134   69   70 1
 135   69  174 1
 136   70   71 1
 137   70  175 1
 138   71   72 1
 139   71   73 1
 140   71  176 1
 141   72  177 1
 142   72  178 1
 143   72  179 1
 144   73  180 1
 145   74   75 2
 146   74   77 1
 147   74   87 am
 148   76   77 1
 149   76  181 1
 150   77   78 1
 151   77  182 1
 152   78   79 1
 153   78  183 1
 154   78  184 1
 155   79   80 ar
 156   79   84 ar
 157   80   81 ar
 158   80  185 1
 159   81   82 ar
 160   81  186 1
 161   82   83 ar
 162   82  187 1
 163   83   84 ar
 164   83  188 1
 165   84  189 1
 166   85   86 2
 167   85   88 1
 168   85   93 1
 169   87   88 1
 170   87  190 1
 171   88   89 1
 172   88  191 1
 173   89   90 1
 174   89  192 1
 175   89  193 1
 176   90   91 1
 177   90   92 1
 178   90  194 1
 179   91  195 1
 180   91  196 1
 181   91  197 1
 182   92  198 1
 183   92  199 1
 184   92  200 1
 185   93  201 1
 186   94   95 2
 187   94  110 1
 188   96   97 1
 189   96  202 1
 190   96  203 1
 191   96  204 1
 192   97   98 1
 193   97  205 1
 194   97  206 1
 195   98   99 1
 196   98  207 1
 197   98  208 1
 198   99  100 1
 199   99  209 1
 200   99  210 1
 201  100  101 1
 202  100  211 1
 203  100  212 1
 204  101  102 1
 205  101  213 1
 206  101  214 1
 207  102  103 1
 208  102  215 1
 209  102  216 1
 210  103  104 1
 211  103  217 1
 212  103  218 1
 213  104  105 1
 214  104  219 1
 215  104  220 1
 216  105  106 1
 217  105  221 1
 218  105  222 1
 219  106  107 1
 220  106  223 1
 221  106  224 1
 222  107  108 1
 223  107  225 1
 224  107  226 1
 225  108  109 1
 226  108  227 1
 227  108  228 1
 228  109  110 1
 229  109  229 1
 230  109  230 1
 231  110  231 1
 232  110  232 1

#	End of record

