#	Name: ASD03330620
#	Creating user name:	WinNT
#	Creation time:	15. 06. 2019 20:37

#	Modifying user name:	WinNT
#	Modification time:	15. 06. 2019 20:37

#	Program:	/corina/corina34_cracker 3.40 0067  02.08.2006

@<TRIPOS>MOLECULE
ASD03330620
  66   68    0    0    0
SMALL
NO_CHARGES


@<TRIPOS>ATOM
   1 C1            -0.3224     1.1670     0.8624 C.2     
   2 N2            -0.3507    -0.1661     1.0967 N.pl3   
   3 C3             0.9829     1.5549     0.9034 C.2     
   4 N4             1.7313     0.4564     1.1435 N.2     
   5 C5             0.9386    -0.5834     1.2553 C.2     
   6 C6             1.3706    -1.9753     1.5102 C.ar    
   7 C7             1.4878     2.9269     0.7181 C.2     
   8 O8             0.7102     3.8376     0.5058 O.2     
   9 C9             3.3133     4.5364     0.5998 C.3     
  10 N10            2.8114     3.1725     0.7840 N.am    
  11 C11            3.4839     4.8197    -0.8940 C.3     
  12 C12            2.1144     4.8026    -1.5760 C.3     
  13 C13            4.1302     6.1937    -1.0820 C.3     
  14 C14            4.3778     3.7461    -1.5179 C.3     
  15 C15            4.6435     4.6801     1.2935 C.2     
  16 N16            5.1788     5.9032     1.4777 N.am    
  17 O17            5.2323     3.6951     1.6859 O.2     
  18 C18            6.5043     6.0385     2.0867 C.3     
  19 C19           -1.5601    -0.9900     1.1761 C.3     
  20 C20           -2.4711    -0.6618    -0.0109 C.3     
  21 C21           -3.3825     0.5078     0.3471 C.3     
  22 N22           -2.7022     1.4505     1.2376 N.3     
  23 C23           -1.5207     2.0390     0.5899 C.3     
  24 C24           -3.6242     2.4962     1.7008 C.3     
  25 C25            2.6219    -2.4112     1.0743 C.ar    
  26 C26            3.0190    -3.7107     1.3151 C.ar    
  27 C27            2.1789    -4.5805     1.9868 C.ar    
  28 C28            0.9363    -4.1543     2.4213 C.ar    
  29 C29            0.5304    -2.8558     2.1926 C.ar    
  30 S30            4.5992    -4.2633     0.7653 S.o2    
  31 O31            4.4421    -5.6660     0.6005 O.2     
  32 O32            4.8980    -3.4245    -0.3421 O.2     
  33 C33            5.7116    -3.9061     2.1529 C.3     
  34 H34            2.6032     5.2455     1.0254 H       
  35 H35            3.4316     2.4461     0.9534 H       
  36 H36            1.4776     5.5675    -1.1315 H       
  37 H37            2.2359     5.0045    -2.6402 H       
  38 H38            1.6540     3.8238    -1.4420 H       
  39 H39            5.0897     6.2177    -0.5655 H       
  40 H40            4.2848     6.3802    -2.1447 H       
  41 H41            3.4763     6.9622    -0.6696 H       
  42 H42            3.9174     2.7672    -1.3840 H       
  43 H43            4.4993     3.9479    -2.5821 H       
  44 H44            5.3534     3.7582    -1.0321 H       
  45 H45            4.6864     6.6939     1.2070 H       
  46 H46            6.4911     5.6036     3.0861 H       
  47 H47            7.2405     5.5184     1.4738 H       
  48 H48            6.7676     7.0941     2.1533 H       
  49 H49           -1.2854    -2.0443     1.1438 H       
  50 H50           -2.0849    -0.7777     2.1075 H       
  51 H51           -1.8605    -0.3948    -0.8735 H       
  52 H52           -3.0785    -1.5337    -0.2536 H       
  53 H53           -3.6754     1.0258    -0.5661 H       
  54 H54           -4.2751     0.1270     0.8436 H       
  55 H55           -1.3441     3.0368     0.9915 H       
  56 H56           -1.6882     2.1023    -0.4853 H       
  57 H57           -4.4509     2.0374     2.2432 H       
  58 H58           -3.0933     3.1826     2.3603 H       
  59 H59           -4.0126     3.0443     0.8424 H       
  60 H60            3.2784    -1.7333     0.5491 H       
  61 H61            2.4941    -5.5966     2.1725 H       
  62 H62            0.2848    -4.8383     2.9449 H       
  63 H63           -0.4396    -2.5242     2.5326 H       
  64 H64            5.3757    -4.4484     3.0368 H       
  65 H65            6.7237    -4.2195     1.8972 H       
  66 H66            5.7038    -2.8357     2.3586 H       
@<TRIPOS>BOND
   1    1    2 1
   2    1    3 2
   3    1   23 1
   4    2   19 1
   5    2    5 1
   6    3    4 1
   7    3    7 1
   8    4    5 2
   9    5    6 1
  10    6   25 ar
  11    6   29 ar
  12    7    8 2
  13    7   10 am
  14    9   10 1
  15    9   11 1
  16    9   15 1
  17    9   34 1
  18   10   35 1
  19   11   12 1
  20   11   13 1
  21   11   14 1
  22   12   36 1
  23   12   37 1
  24   12   38 1
  25   13   39 1
  26   13   40 1
  27   13   41 1
  28   14   42 1
  29   14   43 1
  30   14   44 1
  31   15   16 am
  32   15   17 2
  33   16   18 1
  34   16   45 1
  35   18   46 1
  36   18   47 1
  37   18   48 1
  38   19   20 1
  39   19   49 1
  40   19   50 1
  41   20   21 1
  42   20   51 1
  43   20   52 1
  44   21   22 1
  45   21   53 1
  46   21   54 1
  47   22   23 1
  48   22   24 1
  49   23   55 1
  50   23   56 1
  51   24   57 1
  52   24   58 1
  53   24   59 1
  54   25   26 ar
  55   25   60 1
  56   26   27 ar
  57   26   30 1
  58   27   28 ar
  59   27   61 1
  60   28   29 ar
  61   28   62 1
  62   29   63 1
  63   30   31 2
  64   30   32 2
  65   30   33 1
  66   33   64 1
  67   33   65 1
  68   33   66 1

#	End of record

