#	Name: ASD01412035
#	Creating user name:	WinNT
#	Creation time:	15. 06. 2019 19:19

#	Modifying user name:	WinNT
#	Modification time:	15. 06. 2019 19:19

#	Program:	/corina/corina34_cracker 3.40 0067  02.08.2006

@<TRIPOS>MOLECULE
ASD01412035
  86   90    0    0    0
SMALL
NO_CHARGES


@<TRIPOS>ATOM
   1 C1            -1.1721     3.2498    -0.6268 C.ar    
   2 C2            -0.9746     1.9111    -1.0226 C.ar    
   3 C3            -2.0428     1.0034    -0.9788 C.ar    
   4 C4            -3.2690     1.4146    -0.5550 C.ar    
   5 C5            -3.4748     2.7445    -0.1593 C.ar    
   6 C6            -2.4229     3.6583    -0.1922 C.ar    
   7 N7             0.0358     3.9020    -0.7719 N.pl3   
   8 C8             0.9676     3.0079    -1.2435 C.2     
   9 C9             0.3832     1.7930    -1.4048 C.2     
  10 C10            1.0597     0.5416    -1.9022 C.3     
  11 C11            0.9726    -0.5460    -0.8297 C.3     
  12 C12            1.6594    -1.8165    -1.3347 C.3     
  13 C13            0.9642    -2.2999    -2.6090 C.3     
  14 C14            1.0514    -1.2123    -3.6815 C.3     
  15 C15            0.3645     0.0582    -3.1765 C.3     
  16 C16           -4.8092     3.1768     0.2974 C.2     
  17 O17           -4.9904     4.3290     0.6410 O.2     
  18 N18           -5.8275     2.2946     0.3339 N.am    
  19 C19           -7.1527     2.7238     0.7875 C.3     
  20 C20           -8.1046     1.5568     0.7334 C.2     
  21 C21           -7.0577     3.2383     2.2252 C.3     
  22 C22           -7.6652     3.8426    -0.1217 C.3     
  23 C23           -8.8161    -0.4852    -0.2491 C.ar    
  24 O24           -8.9744     1.4444     1.5710 O.2     
  25 C25           -9.1914    -1.0740     0.9548 C.ar    
  26 C26          -10.0114    -2.1791     0.9566 C.ar    
  27 C27          -10.4687    -2.7107    -0.2553 C.ar    
  28 C28          -10.0890    -2.1147    -1.4640 C.ar    
  29 C29           -9.2682    -1.0102    -1.4561 C.ar    
  30 C30          -11.3441    -3.8909    -0.2586 C.2     
  31 C31          -12.3915    -3.9574     0.5921 C.2     
  32 N32           -7.9892     0.6379    -0.2458 N.am    
  33 C33            0.2841     5.3144    -0.4726 C.3     
  34 C34            2.3834     3.3203    -1.5303 C.ar    
  35 C35            3.3969     2.4594    -1.1102 C.ar    
  36 N36            4.6599     2.7345    -1.3640 N.ar    
  37 C37            5.0173     3.8279    -2.0215 C.ar    
  38 C38            4.0623     4.7353    -2.4728 C.ar    
  39 C39            2.7265     4.4832    -2.2336 C.ar    
  40 N40            6.3626     4.0726    -2.2634 N.pl3   
  41 C41            6.7771     5.3295    -2.8916 C.3     
  42 C42            7.3673     3.0738    -1.8905 C.3     
  43 C43          -12.7895    -2.8063     1.3179 C.2     
  44 O44          -12.2155    -1.7482     1.1427 O.2     
  45 O45          -13.8050    -2.8845     2.2029 O.3     
  46 H46           -1.8923    -0.0222    -1.2818 H       
  47 H47           -4.0890     0.7125    -0.5235 H       
  48 H48           -2.5835     4.6817     0.1132 H       
  49 H49            2.1064     0.7558    -2.1182 H       
  50 H50            1.4678    -0.2015     0.0782 H       
  51 H51           -0.0741    -0.7602    -0.6136 H       
  52 H52            2.7061    -1.6023    -1.5507 H       
  53 H53            1.5973    -2.5913    -0.5706 H       
  54 H54            1.4535    -3.2051    -2.9687 H       
  55 H55           -0.0825    -2.5141    -2.3929 H       
  56 H56            2.0980    -0.9981    -3.8976 H       
  57 H57            0.5561    -1.5568    -4.5893 H       
  58 H58           -0.6822    -0.1560    -2.9605 H       
  59 H59            0.4266     0.8330    -3.9406 H       
  60 H60           -5.6829     1.3754     0.0598 H       
  61 H61           -6.3692     4.0824     2.2643 H       
  62 H62           -8.0437     3.5577     2.5627 H       
  63 H63           -6.6925     2.4413     2.8729 H       
  64 H64           -7.7329     3.4761    -1.1460 H       
  65 H65           -8.6512     4.1620     0.2158 H       
  66 H66           -6.9768     4.6867    -0.0826 H       
  67 H67           -8.8382    -0.6632     1.8891 H       
  68 H68          -10.3015    -2.6358     1.8913 H       
  69 H69          -10.4391    -2.5217    -2.4012 H       
  70 H70           -8.9751    -0.5496    -2.3880 H       
  71 H71          -11.1502    -4.7051    -0.9411 H       
  72 H72          -12.9256    -4.8874     0.7194 H       
  73 H73           -7.3310     0.7576    -0.9482 H       
  74 H74            0.5961     5.4162     0.5668 H       
  75 H75            1.0702     5.6917    -1.1266 H       
  76 H76           -0.6295     5.8863    -0.6353 H       
  77 H77            3.1438     1.5584    -0.5711 H       
  78 H78            4.3631     5.6238    -3.0080 H       
  79 H79            1.9647     5.1696    -2.5727 H       
  80 H80            6.9676     6.0756    -2.1202 H       
  81 H81            7.6863     5.1642    -3.4696 H       
  82 H82            5.9858     5.6837    -3.5522 H       
  83 H83            6.8738     2.2125    -1.4402 H       
  84 H84            7.9119     2.7566    -2.7798 H       
  85 H85            8.0639     3.5091    -1.1739 H       
  86 H86          -14.0036    -2.0495     2.6485 H       
@<TRIPOS>BOND
   1    1    2 ar
   2    1    7 1
   3    1    6 ar
   4    2    3 ar
   5    2    9 1
   6    3    4 ar
   7    3   46 1
   8    4    5 ar
   9    4   47 1
  10    5    6 ar
  11    5   16 1
  12    6   48 1
  13    7    8 1
  14    7   33 1
  15    8    9 2
  16    8   34 1
  17    9   10 1
  18   10   11 1
  19   10   15 1
  20   10   49 1
  21   11   12 1
  22   11   50 1
  23   11   51 1
  24   12   13 1
  25   12   52 1
  26   12   53 1
  27   13   14 1
  28   13   54 1
  29   13   55 1
  30   14   15 1
  31   14   56 1
  32   14   57 1
  33   15   58 1
  34   15   59 1
  35   16   17 2
  36   16   18 am
  37   18   19 1
  38   18   60 1
  39   19   20 1
  40   19   21 1
  41   19   22 1
  42   20   24 2
  43   20   32 am
  44   21   61 1
  45   21   62 1
  46   21   63 1
  47   22   64 1
  48   22   65 1
  49   22   66 1
  50   23   25 ar
  51   23   29 ar
  52   23   32 1
  53   25   26 ar
  54   25   67 1
  55   26   27 ar
  56   26   68 1
  57   27   28 ar
  58   27   30 1
  59   28   29 ar
  60   28   69 1
  61   29   70 1
  62   30   31 2
  63   30   71 1
  64   31   43 1
  65   31   72 1
  66   32   73 1
  67   33   74 1
  68   33   75 1
  69   33   76 1
  70   34   35 ar
  71   34   39 ar
  72   35   36 ar
  73   35   77 1
  74   36   37 ar
  75   37   38 ar
  76   37   40 1
  77   38   39 ar
  78   38   78 1
  79   39   79 1
  80   40   41 1
  81   40   42 1
  82   41   80 1
  83   41   81 1
  84   41   82 1
  85   42   83 1
  86   42   84 1
  87   42   85 1
  88   43   44 2
  89   43   45 1
  90   45   86 1

#	End of record

