#	Name: ASD04560001
#	Creating user name:	WinNT
#	Creation time:	15. 06. 2019 20:49

#	Modifying user name:	WinNT
#	Modification time:	15. 06. 2019 20:49

#	Program:	/corina/corina34_cracker 3.40 0067  02.08.2006

@<TRIPOS>MOLECULE
ASD04560001
  31   33    0    0    0
SMALL
NO_CHARGES


@<TRIPOS>ATOM
   1 N1            -0.0559     1.4015     0.0324 N.am    
   2 C2             0.0924     0.0619     0.0299 C.2     
   3 O3             1.2023    -0.4267    -0.0582 O.2     
   4 N4            -0.9895    -0.7361     0.1252 N.am    
   5 N5            -2.8000    -4.7180    -1.3075 N.2     
   6 N6            -3.5628    -3.7176    -1.5777 N.2     
   7 N7            -3.0503    -2.6067    -1.1741 N.pl3   
   8 C8            -1.8424    -2.8843    -0.5835 C.ar    
   9 C9            -1.6950    -4.2770    -0.6807 C.ar    
  10 C10           -0.8461    -2.1200     0.0277 C.ar    
  11 C11            0.2863    -2.7379     0.5374 C.ar    
  12 C12            0.4429    -4.1080     0.4474 C.ar    
  13 C13           -0.5366    -4.8924    -0.1582 C.ar    
  14 C14           -0.3705    -6.3118    -0.2483 C.1     
  15 N15           -0.2388    -7.4379    -0.3199 N.1     
  16 C16            1.0718     2.2305     0.0179 C.ar    
  17 C17            0.9984     3.5152     0.5427 C.ar    
  18 C18            2.1136     4.3308     0.5267 C.ar    
  19 C19            3.3014     3.8697    -0.0113 C.ar    
  20 C20            3.3770     2.5922    -0.5344 C.ar    
  21 C21            2.2675     1.7692    -0.5155 C.ar    
  22 Br22          -0.6257     4.1465     1.2772 Br      
  23 H23           -0.9442     1.7911     0.0401 H       
  24 H24           -1.8679    -0.3479     0.2616 H       
  25 H25           -3.4482    -1.7274    -1.2709 H       
  26 H26            1.0537    -2.1421     1.0091 H       
  27 H27            1.3307    -4.5739     0.8489 H       
  28 H28            2.0576     5.3293     0.9343 H       
  29 H29            4.1716     4.5092    -0.0230 H       
  30 H30            4.3059     2.2356    -0.9544 H       
  31 H31            2.3289     0.7698    -0.9201 H       
@<TRIPOS>BOND
   1    1    2 am
   2    1   16 1
   3    1   23 1
   4    2    3 2
   5    2    4 am
   6    4   10 1
   7    4   24 1
   8    5    6 2
   9    5    9 1
  10    6    7 1
  11    7    8 1
  12    7   25 1
  13    8    9 ar
  14    8   10 ar
  15    9   13 ar
  16   10   11 ar
  17   11   12 ar
  18   11   26 1
  19   12   13 ar
  20   12   27 1
  21   13   14 1
  22   14   15 3
  23   16   17 ar
  24   16   21 ar
  25   17   18 ar
  26   17   22 1
  27   18   19 ar
  28   18   28 1
  29   19   20 ar
  30   19   29 1
  31   20   21 ar
  32   20   30 1
  33   21   31 1

#	End of record

