#	Name: ASD01028262
#	Creating user name:	WinNT
#	Creation time:	15. 06. 2019 18:56

#	Modifying user name:	WinNT
#	Modification time:	15. 06. 2019 18:56

#	Program:	/corina/corina34_cracker 3.40 0067  02.08.2006

@<TRIPOS>MOLECULE
ASD01028262
  41   45    0    0    0
SMALL
NO_CHARGES


@<TRIPOS>ATOM
   1 C1            -0.0184     1.5028     0.0103 C.3     
   2 C2             0.0021    -0.0041     0.0020 C.2     
   3 N3             0.0233    -0.8071     1.0882 N.pl3   
   4 C4             0.0358    -2.0951     0.6074 C.2     
   5 N5             0.0218    -2.0109    -0.7128 N.2     
   6 N6            -0.0033    -0.7713    -1.0595 N.2     
   7 N7             0.0340    -0.5736     2.4648 N.2     
   8 C8             0.0559    -1.5792     3.3114 C.2     
   9 C9             0.0696    -2.9122     2.8491 C.2     
  10 C10            0.0589    -3.1711     1.5148 C.2     
  11 C11            0.0669    -1.3091     4.7702 C.ar    
  12 C12            0.0540     0.0033     5.2386 C.ar    
  13 C13            0.0638     0.2487     6.5967 C.ar    
  14 C14            0.0864    -0.8052     7.4924 C.ar    
  15 C15            0.0993    -2.1099     7.0330 C.ar    
  16 C16            0.0843    -2.3670     5.6771 C.ar    
  17 C17            1.3954     2.0244    -0.0004 C.ar    
  18 C18            2.0296     2.2691    -1.2110 C.ar    
  19 C19            3.3210     2.7458    -1.2473 C.ar    
  20 C20            4.0028     2.9866    -0.0532 C.ar    
  21 C21            3.3545     2.7366     1.1768 C.ar    
  22 C22            2.0457     2.2597     1.1916 C.ar    
  23 N23            5.2757     3.4556    -0.0426 N.2     
  24 C24            5.9095     3.6790     1.0683 C.2     
  25 N25            5.3650     3.4673     2.2949 N.am    
  26 C26            4.1005     3.0002     2.4163 C.2     
  27 O27            3.6002     2.8064     3.5089 O.2     
  28 H28           -0.5455     1.8639    -0.8728 H       
  29 H29           -0.5286     1.8543     0.9071 H       
  30 H30            0.0883    -3.7281     3.5565 H       
  31 H31            0.0693    -4.1894     1.1553 H       
  32 H32            0.0367     0.8269     4.5401 H       
  33 H33            0.0542     1.2654     6.9608 H       
  34 H34            0.0944    -0.6086     8.5543 H       
  35 H35            0.1173    -2.9289     7.7368 H       
  36 H36            0.0944    -3.3860     5.3196 H       
  37 H37            1.5036     2.0829    -2.1358 H       
  38 H38            3.8041     2.9320    -2.1951 H       
  39 H39            1.5474     2.0676     2.1303 H       
  40 H40            6.9216     4.0521     1.0146 H       
  41 H41            5.8875     3.6523     3.0910 H       
@<TRIPOS>BOND
   1    1    2 1
   2    1   17 1
   3    1   28 1
   4    1   29 1
   5    2    3 1
   6    2    6 2
   7    3    4 1
   8    3    7 1
   9    4    5 2
  10    4   10 1
  11    5    6 1
  12    7    8 2
  13    8    9 1
  14    8   11 1
  15    9   10 2
  16    9   30 1
  17   10   31 1
  18   11   12 ar
  19   11   16 ar
  20   12   13 ar
  21   12   32 1
  22   13   14 ar
  23   13   33 1
  24   14   15 ar
  25   14   34 1
  26   15   16 ar
  27   15   35 1
  28   16   36 1
  29   17   18 ar
  30   17   22 ar
  31   18   19 ar
  32   18   37 1
  33   19   20 ar
  34   19   38 1
  35   20   21 ar
  36   20   23 1
  37   21   22 ar
  38   21   26 1
  39   22   39 1
  40   23   24 2
  41   24   25 1
  42   24   40 1
  43   25   26 am
  44   25   41 1
  45   26   27 2

#	End of record

