#	Name: ASD03490007
#	Creating user name:	WinNT
#	Creation time:	15. 06. 2019 20:42

#	Modifying user name:	WinNT
#	Modification time:	15. 06. 2019 20:42

#	Program:	/corina/corina34_cracker 3.40 0067  02.08.2006

@<TRIPOS>MOLECULE
ASD03490007
  79   83    0    0    0
SMALL
NO_CHARGES


@<TRIPOS>ATOM
   1 C1            -0.0142     1.3514    -0.0293 C.2     
   2 C2             0.0066    -0.0092    -0.0913 C.2     
   3 C3            -1.3164    -0.4586    -0.0953 C.2     
   4 N4            -2.1088     0.5817    -0.0384 N.2     
   5 N5            -1.3192     1.7377     0.0102 N.pl3   
   6 N6             1.0947     2.1919    -0.0049 N.am    
   7 C7             2.3368     1.6701    -0.0444 C.2     
   8 C8             3.5238     2.5698    -0.0183 C.2     
   9 C9             4.8702     2.0026     0.0758 C.ar    
  10 C10            6.0508     2.8631    -0.0328 C.ar    
  11 C11            7.3354     2.2790     0.0630 C.ar    
  12 C12            7.4512     0.8853     0.2598 C.ar    
  13 C13            6.3212     0.0948     0.3587 C.ar    
  14 C14            5.0519     0.6317     0.2765 C.ar    
  15 C15            5.9314     4.2422    -0.2287 C.ar    
  16 C16            7.0558     5.0101    -0.3253 C.ar    
  17 C17            8.3206     4.4383    -0.2318 C.ar    
  18 C18            8.4709     3.0969    -0.0401 C.ar    
  19 O19            8.6777     0.3191     0.3520 O.3     
  20 C20            8.7262    -1.0951     0.5510 C.3     
  21 C21           10.1851    -1.5494     0.6299 C.3     
  22 N22           10.8154    -0.9673     1.8223 N.3     
  23 C23           12.1373    -1.5636     2.0636 C.3     
  24 C24           12.7821    -0.8880     3.2768 C.3     
  25 O25           11.9146    -1.0192     4.4062 O.3     
  26 C26           10.6186    -0.4486     4.2060 C.3     
  27 C27            9.9519    -1.1197     3.0023 C.3     
  28 C28           -1.7569    -1.8986    -0.1556 C.3     
  29 C29           -1.5316    -2.5582     1.2064 C.3     
  30 C30           -3.2430    -1.9627    -0.5138 C.3     
  31 C31           -0.9433    -2.6366    -1.2206 C.3     
  32 O32            2.4882     0.4666    -0.1013 O.2     
  33 O33            3.3745     3.7748    -0.0751 O.2     
  34 C34           -1.7887     3.0564     0.0784 C.ar    
  35 C35           -2.9550     3.4147    -0.5839 C.ar    
  36 C36           -3.4154     4.7152    -0.5144 C.ar    
  37 C37           -2.7157     5.6598     0.2133 C.ar    
  38 C38           -1.5532     5.3061     0.8738 C.ar    
  39 C39           -1.0911     4.0062     0.8132 C.ar    
  40 C40           -4.6815     5.1049    -1.2330 C.3     
  41 C41           -3.2205     7.0779     0.2867 C.3     
  42 H42            0.8891    -0.6305    -0.1303 H       
  43 H43            0.9738     3.1532     0.0405 H       
  44 H44            6.4342    -0.9688     0.5088 H       
  45 H45            4.1912    -0.0155     0.3580 H       
  46 H46            4.9549     4.6974    -0.3035 H       
  47 H47            6.9623     6.0753    -0.4766 H       
  48 H48            9.1959     5.0660    -0.3116 H       
  49 H49            9.4586     2.6659     0.0310 H       
  50 H50            8.2159    -1.3489     1.4801 H       
  51 H51            8.2341    -1.5964    -0.2824 H       
  52 H52           10.2241    -2.6369     0.6925 H       
  53 H53           10.7176    -1.2174    -0.2613 H       
  54 H54           12.0255    -2.6303     2.2578 H       
  55 H55           12.7684    -1.4167     1.1871 H       
  56 H56           13.7375    -1.3656     3.4943 H       
  57 H57           12.9431     0.1684     3.0622 H       
  58 H58           10.0092    -0.6084     5.0955 H       
  59 H59           10.7166     0.6206     4.0185 H       
  60 H60            8.9876    -0.6489     2.8109 H       
  61 H61            9.8051    -2.1794     3.2114 H       
  62 H62           -2.1113    -2.0324     1.9651 H       
  63 H63           -1.8502    -3.5997     1.1628 H       
  64 H64           -0.4729    -2.5125     1.4615 H       
  65 H65           -3.4035    -1.4927    -1.4841 H       
  66 H66           -3.5616    -3.0042    -0.5574 H       
  67 H67           -3.8226    -1.4369     0.2449 H       
  68 H68            0.1154    -2.5909    -0.9654 H       
  69 H69           -1.2619    -3.6781    -1.2642 H       
  70 H70           -1.1038    -2.1666    -2.1909 H       
  71 H71           -3.5017     2.6774    -1.1531 H       
  72 H72           -1.0084     6.0464     1.4409 H       
  73 H73           -0.1835     3.7305     1.3295 H       
  74 H74           -5.5347     4.9602    -0.5703 H       
  75 H75           -4.6240     6.1527    -1.5279 H       
  76 H76           -4.8014     4.4837    -2.1206 H       
  77 H77           -3.8901     7.1815     1.1404 H       
  78 H78           -2.3768     7.7584     0.4019 H       
  79 H79           -3.7596     7.3194    -0.6294 H       
@<TRIPOS>BOND
   1    1    2 2
   2    1    6 1
   3    1    5 1
   4    2    3 1
   5    2   42 1
   6    3    4 2
   7    3   28 1
   8    4    5 1
   9    5   34 1
  10    6    7 am
  11    6   43 1
  12    7    8 1
  13    7   32 2
  14    8    9 1
  15    8   33 2
  16    9   10 ar
  17    9   14 ar
  18   10   11 ar
  19   10   15 ar
  20   11   12 ar
  21   11   18 ar
  22   12   13 ar
  23   12   19 1
  24   13   14 ar
  25   13   44 1
  26   14   45 1
  27   15   16 ar
  28   15   46 1
  29   16   17 ar
  30   16   47 1
  31   17   18 ar
  32   17   48 1
  33   18   49 1
  34   19   20 1
  35   20   21 1
  36   20   50 1
  37   20   51 1
  38   21   22 1
  39   21   52 1
  40   21   53 1
  41   22   23 1
  42   22   27 1
  43   23   24 1
  44   23   54 1
  45   23   55 1
  46   24   25 1
  47   24   56 1
  48   24   57 1
  49   25   26 1
  50   26   27 1
  51   26   58 1
  52   26   59 1
  53   27   60 1
  54   27   61 1
  55   28   29 1
  56   28   30 1
  57   28   31 1
  58   29   62 1
  59   29   63 1
  60   29   64 1
  61   30   65 1
  62   30   66 1
  63   30   67 1
  64   31   68 1
  65   31   69 1
  66   31   70 1
  67   34   35 ar
  68   34   39 ar
  69   35   36 ar
  70   35   71 1
  71   36   37 ar
  72   36   40 1
  73   37   38 ar
  74   37   41 1
  75   38   39 ar
  76   38   72 1
  77   39   73 1
  78   40   74 1
  79   40   75 1
  80   40   76 1
  81   41   77 1
  82   41   78 1
  83   41   79 1

#	End of record

