#	Name: ASD03331783
#	Creating user name:	WinNT
#	Creation time:	15. 06. 2019 20:39

#	Modifying user name:	WinNT
#	Modification time:	15. 06. 2019 20:39

#	Program:	/corina/corina34_cracker 3.40 0067  02.08.2006

@<TRIPOS>MOLECULE
ASD03331783
  53   57    0    0    0
SMALL
NO_CHARGES


@<TRIPOS>ATOM
   1 Cl1           -0.4426     0.2204     1.8356 Cl      
   2 C2            -0.2827     1.8739     1.3316 C.ar    
   3 C3            -0.1075     2.8699     2.2763 C.ar    
   4 C4             0.0200     4.1861     1.8783 C.ar    
   5 C5            -0.0278     4.5099     0.5282 C.ar    
   6 N6             0.1013     5.8411     0.1225 N.pl3   
   7 C7             0.9589     6.6811     0.7878 C.2     
   8 C8             1.2554     8.0500     0.7233 C.2     
   9 N9             0.7841     9.0817    -0.0498 N.pl3   
  10 C10            1.3781    10.3438     0.0319 C.ar    
  11 C11            2.7564    10.4558     0.1719 C.ar    
  12 C12            3.3473    11.7025     0.2531 C.ar    
  13 C13            2.5724    12.8435     0.1956 C.ar    
  14 C14            1.1890    12.7410     0.0552 C.ar    
  15 C15            0.5930    11.4859    -0.0324 C.ar    
  16 C16            0.3550    13.9663    -0.0062 C.ar    
  17 C17            0.9668    15.2155    -0.0341 C.ar    
  18 C18            0.1784    16.3546    -0.0920 C.ar    
  19 C19           -1.1975    16.2072    -0.1202 C.ar    
  20 C20           -1.7465    14.9283    -0.0897 C.ar    
  21 N21           -0.9681    13.8600    -0.0396 N.ar    
  22 N22           -3.1273    14.7721    -0.1172 N.3     
  23 C23           -3.7608    15.4556     1.0306 C.3     
  24 C24           -4.9827    14.5742     1.3906 C.3     
  25 C25           -4.4250    13.1482     1.1407 C.3     
  26 C26           -3.4986    13.3458    -0.0775 C.3     
  27 C27            2.2596     7.9669     1.7937 C.2     
  28 O28            3.0080     8.7379     2.3647 O.2     
  29 C29            1.9429     6.5202     1.8682 C.2     
  30 O30            2.3346     5.5870     2.5436 O.2     
  31 C31           -0.2039     3.5080    -0.4178 C.ar    
  32 C32           -0.3251     2.1928    -0.0144 C.ar    
  33 H33           -0.0707     2.6177     3.3258 H       
  34 H34            0.1564     4.9631     2.6160 H       
  35 H35           -0.4151     6.1712    -0.6293 H       
  36 H36            0.0387     8.9346    -0.6528 H       
  37 H37            3.3671     9.5662     0.2178 H       
  38 H38            4.4187    11.7843     0.3622 H       
  39 H39            3.0379    13.8159     0.2598 H       
  40 H40           -0.4777    11.4014    -0.1460 H       
  41 H41            2.0435    15.2971    -0.0106 H       
  42 H42            0.6284    17.3361    -0.1144 H       
  43 H43           -1.8385    17.0753    -0.1649 H       
  44 H44           -3.0687    15.5063     1.8711 H       
  45 H45           -4.0856    16.4559     0.7444 H       
  46 H46           -5.2648    14.7056     2.4352 H       
  47 H47           -5.8244    14.7853     0.7310 H       
  48 H48           -3.8577    12.7996     2.0037 H       
  49 H49           -5.2319    12.4550     0.9030 H       
  50 H50           -4.0258    13.0742    -0.9921 H       
  51 H51           -2.6042    12.7327     0.0335 H       
  52 H52           -0.2417     3.7569    -1.4681 H       
  53 H53           -0.4571     1.4129    -0.7497 H       
@<TRIPOS>BOND
   1    1    2 1
   2    2   32 ar
   3    2    3 ar
   4    3    4 ar
   5    3   33 1
   6    4    5 ar
   7    4   34 1
   8    5    6 1
   9    5   31 ar
  10    6    7 1
  11    6   35 1
  12    7   29 1
  13    7    8 2
  14    8    9 1
  15    8   27 1
  16    9   10 1
  17    9   36 1
  18   10   15 ar
  19   10   11 ar
  20   11   12 ar
  21   11   37 1
  22   12   13 ar
  23   12   38 1
  24   13   14 ar
  25   13   39 1
  26   14   15 ar
  27   14   16 1
  28   15   40 1
  29   16   21 ar
  30   16   17 ar
  31   17   18 ar
  32   17   41 1
  33   18   19 ar
  34   18   42 1
  35   19   20 ar
  36   19   43 1
  37   20   21 ar
  38   20   22 1
  39   22   26 1
  40   22   23 1
  41   23   24 1
  42   23   44 1
  43   23   45 1
  44   24   25 1
  45   24   46 1
  46   24   47 1
  47   25   26 1
  48   25   48 1
  49   25   49 1
  50   26   50 1
  51   26   51 1
  52   27   28 2
  53   27   29 1
  54   29   30 2
  55   31   32 ar
  56   31   52 1
  57   32   53 1

#	End of record

