#	Name: ASD00731047
#	Creating user name:	WinNT
#	Creation time:	15. 06. 2019 18:37

#	Modifying user name:	WinNT
#	Modification time:	15. 06. 2019 18:37

#	Program:	/corina/corina34_cracker 3.40 0067  02.08.2006

@<TRIPOS>MOLECULE
ASD00731047
 230  232    0    0    0
SMALL
NO_CHARGES


@<TRIPOS>ATOM
   1 C1            -0.4109     1.8245    -1.1234 C.2     
   2 O2            -0.8356     1.3122    -2.1374 O.2     
   3 N3             1.5150     2.4265    -2.4716 N.am    
   4 C4             0.9297     2.5128    -1.1314 C.3     
   5 C5             0.7505     3.9828    -0.7468 C.3     
   6 C6             2.0902     4.7106    -0.8755 C.3     
   7 O7            -0.2067     4.5896    -1.6172 O.3     
   8 C8            -3.4795     2.2880    -0.3941 C.2     
   9 O9            -3.0931     3.4134    -0.6285 O.2     
  10 N10           -1.1403     1.7829     0.0091 N.am    
  11 C11           -2.4914     1.2168    -0.0102 C.3     
  12 C12           -2.8382     0.6773     1.3789 C.3     
  13 C13           -1.9370    -0.4855     1.7055 C.2     
  14 O14           -1.0498    -0.7943     0.9457 O.2     
  15 O15           -2.1199    -1.1782     2.8407 O.3     
  16 C16           -7.1121     2.6863    -0.3013 C.2     
  17 O17           -7.2634     1.6672     0.3386 O.2     
  18 N18           -4.7924     1.9952    -0.4769 N.am    
  19 C19           -5.7530     3.0365    -0.8502 C.3     
  20 C20           -5.8292     3.1372    -2.3750 C.3     
  21 C21           -4.4824     3.6138    -2.9226 C.3     
  22 C22           -4.5586     3.7145    -4.4473 C.3     
  23 N23           -3.2690     4.1708    -4.9717 N.pl3   
  24 C24           -3.0974     4.3370    -6.3256 C.2     
  25 N25           -1.9501     4.7430    -6.7921 N.2     
  26 N26           -4.1360     4.0748    -7.1874 N.pl3   
  27 C27          -10.5457     3.8266    -0.8241 C.2     
  28 O28          -10.2320     4.5146    -1.7723 O.2     
  29 N29           -8.1593     3.5056    -0.5215 N.am    
  30 C30           -9.4806     3.1651     0.0120 C.3     
  31 C31           -9.5888     3.6556     1.4572 C.3     
  32 C32           -8.5907     2.8930     2.3308 C.3     
  33 C33           -8.6101     3.4683     3.7484 C.3     
  34 C34           -8.9783     1.4136     2.3754 C.3     
  35 C35          -14.1275     4.4824    -0.5029 C.2     
  36 O36          -14.1481     4.1140     0.6525 O.2     
  37 N37          -11.8468     3.6535    -0.5181 N.am    
  38 C38          -12.8822     4.2965    -1.3309 C.3     
  39 C39          -13.2009     3.4159    -2.5408 C.3     
  40 C40          -17.6304     5.3047    -1.1486 C.2     
  41 O41          -17.4892     5.2100    -2.3495 O.2     
  42 N42          -15.2184     5.0580    -1.0462 N.am    
  43 C43          -16.4290     5.2387    -0.2412 C.3     
  44 C44          -16.3210     6.5393     0.5574 C.3     
  45 C45          -15.1771     6.4244     1.5669 C.3     
  46 C46          -15.0691     7.7250     2.3655 C.3     
  47 C47          -13.9252     7.6101     3.3750 C.3     
  48 N48          -13.8215     8.8589     4.1417 N.3     
  49 C49          -21.1331     6.2993    -0.8252 C.2     
  50 O50          -20.9610     6.7478     0.2884 O.2     
  51 N51          -18.8617     5.4688    -0.6257 N.am    
  52 C52          -20.0296     5.5329    -1.5078 C.3     
  53 C53          -20.5112     4.1147    -1.8201 C.3     
  54 C54          -19.4540     3.3878    -2.6106 C.2     
  55 C55          -19.3904     3.2782    -3.9470 C.2     
  56 N56          -18.2905     2.5464    -4.3033 N.pl3   
  57 C57          -17.6019     2.1573    -3.1763 C.ar    
  58 C58          -16.4428     1.4166    -2.9703 C.ar    
  59 C59          -15.9935     1.1915    -1.6873 C.ar    
  60 C60          -16.6862     1.6968    -0.5959 C.ar    
  61 C61          -17.8275     2.4267    -0.7753 C.ar    
  62 C62          -18.2972     2.6722    -2.0667 C.ar    
  63 C63          -24.7151     6.8043    -1.3521 C.2     
  64 O64          -24.7628     5.9607    -2.2221 O.2     
  65 N65          -22.3113     6.4863    -1.4523 N.am    
  66 C66          -23.3841     7.2314    -0.7888 C.3     
  67 C67          -23.1869     8.7299    -1.0265 C.3     
  68 C68          -21.8952     9.1884    -0.3467 C.3     
  69 S69          -21.6614    10.9651    -0.6285 S.3     
  70 C70          -20.1067    11.3146     0.2382 C.3     
  71 C71          -28.1486     8.0550    -1.2538 C.2     
  72 O72          -27.8151     9.0911    -0.7188 O.2     
  73 N73          -25.8523     7.3599    -0.8890 N.am    
  74 C74          -27.1462     6.9447    -1.4366 C.3     
  75 C75          -27.6323     5.6929    -0.7033 C.3     
  76 C76          -26.6937     4.5485    -0.9867 C.ar    
  77 C77          -25.6058     4.3267    -0.1633 C.ar    
  78 C78          -24.7448     3.2769    -0.4233 C.ar    
  79 C79          -24.9720     2.4486    -1.5064 C.ar    
  80 C80          -26.0605     2.6698    -2.3293 C.ar    
  81 C81          -26.9239     3.7170    -2.0668 C.ar    
  82 C82          -30.9993     8.8816    -0.1320 C.2     
  83 O83          -30.6547     8.0028     0.6223 O.2     
  84 N84          -29.4157     7.8966    -1.6848 N.am    
  85 C85          -30.3902     8.9760    -1.5072 C.3     
  86 C86          -31.4908     8.8483    -2.5623 C.3     
  87 C87          -32.4396    10.0439    -2.4569 C.3     
  88 C88          -33.4661     9.9818    -3.5897 C.3     
  89 C89          -32.2731     7.5542    -2.3291 C.3     
  90 O90          -31.9245     9.7737     0.2550 O.3     
  91 C91            2.8517     2.4966    -2.6289 C.2     
  92 O92            3.5700     2.6312    -1.6610 O.2     
  93 C93           18.3939     2.5167   -13.0993 C.3     
  94 C94           17.7826     2.6068   -11.6996 C.3     
  95 C95           16.2596     2.5011   -11.8005 C.3     
  96 C96           15.6483     2.5913   -10.4008 C.3     
  97 C97           14.1253     2.4856   -10.5017 C.3     
  98 C98           13.5140     2.5757    -9.1020 C.3     
  99 C99           11.9910     2.4700    -9.2029 C.3     
 100 C100          11.3797     2.5602    -7.8032 C.3     
 101 C101           9.8567     2.4545    -7.9040 C.3     
 102 C102           9.2454     2.5446    -6.5044 C.3     
 103 C103           7.7224     2.4389    -6.6052 C.3     
 104 C104           7.1111     2.5291    -5.2055 C.3     
 105 C105           5.5881     2.4234    -5.3064 C.3     
 106 C106           4.9769     2.5135    -3.9067 C.3     
 107 C107           3.4538     2.4078    -4.0076 C.3     
 108 H108           0.9405     2.3189    -3.2457 H       
 109 H109           1.5915     2.0276    -0.4139 H       
 110 H110           0.3986     4.0487     0.2827 H       
 111 H111           2.4421     4.6446    -1.9050 H       
 112 H112           1.9625     5.7578    -0.6015 H       
 113 H113           2.8203     4.2477    -0.2116 H       
 114 H114           0.0416     4.5673    -2.5515 H       
 115 H115          -0.7708     2.1279     0.8370 H       
 116 H116          -2.5349     0.4052    -0.7365 H       
 117 H117          -2.6985     1.4645     2.1197 H       
 118 H118          -3.8768     0.3467     1.3914 H       
 119 H119          -1.5169    -1.9158     3.0069 H       
 120 H120          -5.1014     1.0951    -0.2895 H       
 121 H121          -5.4303     3.9929    -0.4386 H       
 122 H122          -6.0653     2.1584    -2.7924 H       
 123 H123          -6.6069     3.8482    -2.6537 H       
 124 H124          -4.2463     4.5926    -2.5051 H       
 125 H125          -3.7047     2.9028    -2.6438 H       
 126 H126          -4.7947     2.7356    -4.8647 H       
 127 H127          -5.3363     4.4255    -4.7261 H       
 128 H128          -2.5363     4.3558    -4.3636 H       
 129 H129          -1.8290     4.8602    -7.7474 H       
 130 H130          -4.9898     3.7726    -6.8403 H       
 131 H131          -4.0149     4.1920    -8.1427 H       
 132 H132          -8.0383     4.3206    -1.0334 H       
 133 H133          -9.6161     2.0839    -0.0158 H       
 134 H134          -9.3657     4.7218     1.4967 H       
 135 H135         -10.6001     3.4822     1.8250 H       
 136 H136          -7.5897     2.9939     1.9114 H       
 137 H137          -9.6111     3.3674     4.1677 H       
 138 H138          -7.8990     2.9250     4.3707 H       
 139 H139          -8.3339     4.5222     3.7166 H       
 140 H140          -8.9645     1.0038     1.3654 H       
 141 H141          -8.2673     0.8703     2.9977 H       
 142 H142          -9.9794     1.3128     2.7947 H       
 143 H143         -12.0976     3.1032     0.2403 H       
 144 H144         -12.5248     5.2679    -1.6727 H       
 145 H145         -12.3002     3.2814    -3.1397 H       
 146 H146         -13.5584     2.4445    -2.1990 H       
 147 H147         -13.9713     3.8943    -3.1455 H       
 148 H148         -15.2019     5.3526    -1.9702 H       
 149 H149         -16.5377     4.3989     0.4451 H       
 150 H150         -16.1236     7.3679    -0.1227 H       
 151 H151         -17.2565     6.7191     1.0872 H       
 152 H152         -15.3745     5.5958     2.2470 H       
 153 H153         -14.2416     6.2447     1.0371 H       
 154 H154         -14.8717     8.5536     1.6854 H       
 155 H155         -16.0046     7.9048     2.8953 H       
 156 H156         -14.1226     6.7815     4.0551 H       
 157 H157         -12.9897     7.4304     2.8452 H       
 158 H158         -14.6974     9.0814     4.5905 H       
 159 H159         -13.0725     8.8081     4.8159 H       
 160 H160         -18.9745     5.5445     0.3348 H       
 161 H161         -19.7572     6.0366    -2.4352 H       
 162 H162         -20.6991     3.5813    -0.8883 H       
 163 H163         -21.4312     4.1635    -2.4027 H       
 164 H164         -20.1022     3.7043    -4.6385 H       
 165 H165         -18.0341     2.3334    -5.2143 H       
 166 H166         -15.8970     1.0189    -3.8131 H       
 167 H167         -15.0935     0.6159    -1.5294 H       
 168 H168         -16.3205     1.5113     0.4033 H       
 169 H169         -18.3615     2.8164     0.0788 H       
 170 H170         -22.4490     6.1276    -2.3430 H       
 171 H171         -23.3602     7.0270     0.2816 H       
 172 H172         -23.1220     8.9224    -2.0974 H       
 173 H173         -24.0315     9.2782    -0.6093 H       
 174 H174         -21.9601     8.9959     0.7242 H       
 175 H175         -21.0506     8.6401    -0.7639 H       
 176 H176         -19.8626    12.3718     0.1346 H       
 177 H177         -20.2163    11.0688     1.2945 H       
 178 H178         -19.3068    10.7131    -0.1936 H       
 179 H179         -25.8142     8.0346    -0.1932 H       
 180 H180         -27.0375     6.7245    -2.4986 H       
 181 H181         -27.6561     5.8863     0.3691 H       
 182 H182         -28.6337     5.4356    -1.0484 H       
 183 H183         -25.4282     4.9738     0.6829 H       
 184 H184         -23.8944     3.1041     0.2197 H       
 185 H185         -24.2990     1.6289    -1.7099 H       
 186 H186         -26.2379     2.0229    -3.1757 H       
 187 H187         -27.7764     3.8876    -2.7076 H       
 188 H188         -29.6825     7.0680    -2.1127 H       
 189 H189         -29.8906     9.9384    -1.6180 H       
 190 H190         -31.0416     8.8274    -3.5552 H       
 191 H191         -32.9555    10.0148    -1.4971 H       
 192 H192         -31.8684    10.9690    -2.5345 H       
 193 H193         -34.0373     9.0567    -3.5121 H       
 194 H194         -34.1421    10.8336    -3.5146 H       
 195 H195         -32.9503    10.0109    -4.5494 H       
 196 H196         -33.0572     7.4632    -3.0808 H       
 197 H197         -31.5971     6.7025    -2.4042 H       
 198 H198         -32.7223     7.5751    -1.3362 H       
 199 H199         -32.2864     9.6725     1.1460 H       
 200 H200          19.4789     2.5920   -13.0275 H       
 201 H201          18.1251     1.5624   -13.5524 H       
 202 H202          18.0132     3.3314   -13.7152 H       
 203 H203          18.1634     1.7921   -11.0837 H       
 204 H204          18.0514     3.5611   -11.2466 H       
 205 H205          15.8789     3.3158   -12.4164 H       
 206 H206          15.9908     1.5469   -12.2536 H       
 207 H207          16.0291     1.7766    -9.7849 H       
 208 H208          15.9171     3.5455    -9.9477 H       
 209 H209          13.7446     3.3003   -11.1176 H       
 210 H210          13.8566     1.5313   -10.9548 H       
 211 H211          13.8948     1.7610    -8.4861 H       
 212 H212          13.7828     3.5300    -8.6489 H       
 213 H213          11.6103     3.2847    -9.8188 H       
 214 H214          11.7223     1.5158    -9.6560 H       
 215 H215          11.7605     1.7455    -7.1873 H       
 216 H216          11.6485     3.5144    -7.3501 H       
 217 H217           9.4760     3.2692    -8.5200 H       
 218 H218           9.5880     1.5002    -8.3571 H       
 219 H219           9.6262     1.7299    -5.8884 H       
 220 H220           9.5142     3.4989    -6.0513 H       
 221 H221           7.3417     3.2536    -7.2211 H       
 222 H222           7.4537     1.4847    -7.0583 H       
 223 H223           7.4919     1.7143    -4.5896 H       
 224 H224           7.3799     3.4833    -4.7525 H       
 225 H225           5.2074     3.2381    -5.9223 H       
 226 H226           5.3194     1.4691    -5.7595 H       
 227 H227           5.3576     1.6988    -3.2908 H       
 228 H228           5.2456     3.4678    -3.4536 H       
 229 H229           3.1851     1.4536    -4.4607 H       
 230 H230           3.0731     3.2225    -4.6235 H       
@<TRIPOS>BOND
   1    1    2 2
   2    1    4 1
   3    1   10 am
   4    3   91 am
   5    3    4 1
   6    3  108 1
   7    4    5 1
   8    4  109 1
   9    5    6 1
  10    5    7 1
  11    5  110 1
  12    6  111 1
  13    6  112 1
  14    6  113 1
  15    7  114 1
  16    8    9 2
  17    8   11 1
  18    8   18 am
  19   10   11 1
  20   10  115 1
  21   11   12 1
  22   11  116 1
  23   12   13 1
  24   12  117 1
  25   12  118 1
  26   13   14 2
  27   13   15 1
  28   15  119 1
  29   16   17 2
  30   16   19 1
  31   16   29 am
  32   18   19 1
  33   18  120 1
  34   19   20 1
  35   19  121 1
  36   20   21 1
  37   20  122 1
  38   20  123 1
  39   21   22 1
  40   21  124 1
  41   21  125 1
  42   22   23 1
  43   22  126 1
  44   22  127 1
  45   23   24 1
  46   23  128 1
  47   24   25 2
  48   24   26 1
  49   25  129 1
  50   26  130 1
  51   26  131 1
  52   27   28 2
  53   27   30 1
  54   27   37 am
  55   29   30 1
  56   29  132 1
  57   30   31 1
  58   30  133 1
  59   31   32 1
  60   31  134 1
  61   31  135 1
  62   32   33 1
  63   32   34 1
  64   32  136 1
  65   33  137 1
  66   33  138 1
  67   33  139 1
  68   34  140 1
  69   34  141 1
  70   34  142 1
  71   35   36 2
  72   35   38 1
  73   35   42 am
  74   37   38 1
  75   37  143 1
  76   38   39 1
  77   38  144 1
  78   39  145 1
  79   39  146 1
  80   39  147 1
  81   40   41 2
  82   40   43 1
  83   40   51 am
  84   42   43 1
  85   42  148 1
  86   43   44 1
  87   43  149 1
  88   44   45 1
  89   44  150 1
  90   44  151 1
  91   45   46 1
  92   45  152 1
  93   45  153 1
  94   46   47 1
  95   46  154 1
  96   46  155 1
  97   47   48 1
  98   47  156 1
  99   47  157 1
 100   48  158 1
 101   48  159 1
 102   49   50 2
 103   49   52 1
 104   49   65 am
 105   51   52 1
 106   51  160 1
 107   52   53 1
 108   52  161 1
 109   53   54 1
 110   53  162 1
 111   53  163 1
 112   54   55 2
 113   54   62 1
 114   55   56 1
 115   55  164 1
 116   56   57 1
 117   56  165 1
 118   57   58 ar
 119   57   62 ar
 120   58   59 ar
 121   58  166 1
 122   59   60 ar
 123   59  167 1
 124   60   61 ar
 125   60  168 1
 126   61   62 ar
 127   61  169 1
 128   63   64 2
 129   63   66 1
 130   63   73 am
 131   65   66 1
 132   65  170 1
 133   66   67 1
 134   66  171 1
 135   67   68 1
 136   67  172 1
 137   67  173 1
 138   68   69 1
 139   68  174 1
 140   68  175 1
 141   69   70 1
 142   70  176 1
 143   70  177 1
 144   70  178 1
 145   71   72 2
 146   71   74 1
 147   71   84 am
 148   73   74 1
 149   73  179 1
 150   74   75 1
 151   74  180 1
 152   75   76 1
 153   75  181 1
 154   75  182 1
 155   76   77 ar
 156   76   81 ar
 157   77   78 ar
 158   77  183 1
 159   78   79 ar
 160   78  184 1
 161   79   80 ar
 162   79  185 1
 163   80   81 ar
 164   80  186 1
 165   81  187 1
 166   82   83 2
 167   82   85 1
 168   82   90 1
 169   84   85 1
 170   84  188 1
 171   85   86 1
 172   85  189 1
 173   86   87 1
 174   86   89 1
 175   86  190 1
 176   87   88 1
 177   87  191 1
 178   87  192 1
 179   88  193 1
 180   88  194 1
 181   88  195 1
 182   89  196 1
 183   89  197 1
 184   89  198 1
 185   90  199 1
 186   91   92 2
 187   91  107 1
 188   93   94 1
 189   93  200 1
 190   93  201 1
 191   93  202 1
 192   94   95 1
 193   94  203 1
 194   94  204 1
 195   95   96 1
 196   95  205 1
 197   95  206 1
 198   96   97 1
 199   96  207 1
 200   96  208 1
 201   97   98 1
 202   97  209 1
 203   97  210 1
 204   98   99 1
 205   98  211 1
 206   98  212 1
 207   99  100 1
 208   99  213 1
 209   99  214 1
 210  100  101 1
 211  100  215 1
 212  100  216 1
 213  101  102 1
 214  101  217 1
 215  101  218 1
 216  102  103 1
 217  102  219 1
 218  102  220 1
 219  103  104 1
 220  103  221 1
 221  103  222 1
 222  104  105 1
 223  104  223 1
 224  104  224 1
 225  105  106 1
 226  105  225 1
 227  105  226 1
 228  106  107 1
 229  106  227 1
 230  106  228 1
 231  107  229 1
 232  107  230 1

#	End of record

