#	Name: ASD06610073
#	Creating user name:	WinNT
#	Creation time:	15. 06. 2019 21:07

#	Modifying user name:	WinNT
#	Modification time:	15. 06. 2019 21:07

#	Program:	/corina/corina34_cracker 3.40 0067  02.08.2006

@<TRIPOS>MOLECULE
ASD06610073
 195  195    0    0    0
SMALL
NO_CHARGES


@<TRIPOS>ATOM
   1 C1            -6.2381     7.9164    -5.1309 C.2     
   2 O2            -5.0868     7.5628    -4.9877 O.2     
   3 N3            -5.3508     9.7681    -6.4244 N.am    
   4 C4            -6.5708     9.0283    -6.0922 C.3     
   5 C5            -7.1717     8.4361    -7.3687 C.3     
   6 C6            -7.6420     9.5684    -8.2839 C.3     
   7 C7            -6.1121     7.6024    -8.0920 C.3     
   8 C8            -8.1521     5.3103    -3.4257 C.2     
   9 O9            -9.2489     5.8124    -3.5517 O.2     
  10 N10           -7.2205     7.3112    -4.4344 N.am    
  11 C11           -6.9140     6.1535    -3.5907 C.3     
  12 C12           -6.4378     6.6342    -2.2185 C.3     
  13 C13           -5.1165     7.3901    -2.3732 C.3     
  14 C14           -4.6403     7.8708    -1.0010 C.3     
  15 N15           -3.3752     8.5945    -1.1491 N.pl3   
  16 C16           -2.7520     9.1230    -0.0434 C.2     
  17 N17           -1.6264     9.7669    -0.1752 N.2     
  18 N18           -3.3161     8.9723     1.2013 N.pl3   
  19 C19           -9.9090     3.5824    -1.6297 C.2     
  20 O20           -9.5541     4.5961    -1.0664 O.2     
  21 N21           -8.0406     3.9983    -3.1382 N.am    
  22 C22           -9.1562     3.0890    -2.8384 C.3     
  23 C23           -8.5498     1.6999    -2.5480 C.3     
  24 C24           -7.0893     2.0355    -2.1457 C.3     
  25 C25           -6.7802     3.2360    -3.0784 C.3     
  26 C26          -12.4065     2.2182     0.6648 C.2     
  27 O27          -12.5256     1.1640     0.0771 O.2     
  28 N28          -10.9767     2.8971    -1.1747 N.am    
  29 C29          -11.7085     3.3768     0.0003 C.3     
  30 C30          -12.7446     4.4157    -0.4333 C.3     
  31 C31          -12.0286     5.6584    -0.9662 C.3     
  32 C32          -13.6291     3.8256    -1.5334 C.3     
  33 C33          -14.5928     1.8293     3.5686 C.2     
  34 O34          -14.6011     3.0214     3.7920 O.2     
  35 N35          -12.8984     2.3535     1.9123 N.am    
  36 C36          -13.6725     1.2663     2.5164 C.3     
  37 C37          -12.7189     0.2576     3.1597 C.3     
  38 C38          -15.4012     1.5611     6.6244 C.2     
  39 O39          -14.2520     1.1736     6.6107 O.2     
  40 N40          -15.4064     1.0082     4.2615 N.am    
  41 C41          -16.2195     1.5377     5.3592 C.3     
  42 C42          -17.4461     0.6459     5.5615 C.3     
  43 C43          -18.3235     0.7134     4.3381 C.2     
  44 O44          -17.9661     1.3504     3.3700 O.2     
  45 N45          -19.5053     0.0657     4.3199 N.am    
  46 C46          -16.0692     1.9739    10.1946 C.2     
  47 O47          -17.2699     1.9168    10.0335 O.2     
  48 N48          -15.9464     2.0126     7.7713 N.am    
  49 C49          -15.1509     2.0354     9.0013 C.3     
  50 C50          -14.3310     3.3260     9.0547 C.3     
  51 C51          -15.7655     2.5417    13.7930 C.2     
  52 O52          -14.6433     2.9887    13.6843 O.2     
  53 N53          -15.5561     1.9825    11.4409 N.am    
  54 C54          -16.4488     1.9227    12.6010 C.3     
  55 C55          -16.7882     0.4629    12.9087 C.3     
  56 C56          -17.5914    -0.1294    11.7490 C.3     
  57 C57          -17.9307    -1.5892    12.0567 C.3     
  58 N58          -18.6998    -2.1563    10.9463 N.pl3   
  59 C59          -19.1198    -3.4644    10.9983 C.2     
  60 N60          -18.8337    -4.1999    12.0356 N.2     
  61 N61          -19.8415    -3.9966     9.9562 N.pl3   
  62 C62          -14.8728     2.1672    16.8148 C.2     
  63 O63          -14.8174     1.0437    16.3738 O.2     
  64 N64          -16.4014     2.5985    14.9800 N.am    
  65 C65          -15.7372     3.2002    16.1388 C.3     
  66 C66          -16.7916     3.7071    17.1248 C.3     
  67 C67          -17.5649     4.8664    16.4931 C.3     
  68 C68          -18.7244     5.2647    17.4084 C.3     
  69 C69          -16.6288     6.0621    16.3062 C.3     
  70 O70          -14.1646     2.4953    17.9068 O.3     
  71 C71           -5.4298    11.0515    -6.8283 C.2     
  72 O72           -6.5110    11.5939    -6.9168 O.2     
  73 C73            2.1790    27.1825   -12.5802 C.3     
  74 C74            0.9048    26.4099   -12.2333 C.3     
  75 C75            1.2713    24.9868   -11.8073 C.3     
  76 C76           -0.0029    24.2141   -11.4604 C.3     
  77 C77            0.3636    22.7911   -11.0345 C.3     
  78 C78           -0.9105    22.0184   -10.6875 C.3     
  79 C79           -0.5440    20.5954   -10.2616 C.3     
  80 C80           -1.8182    19.8227    -9.9147 C.3     
  81 C81           -1.4517    18.3997    -9.4887 C.3     
  82 C82           -2.7259    17.6270    -9.1418 C.3     
  83 C83           -2.3594    16.2039    -8.7158 C.3     
  84 C84           -3.6336    15.4313    -8.3689 C.3     
  85 C85           -3.2671    14.0082    -7.9429 C.3     
  86 C86           -4.5413    13.2356    -7.5960 C.3     
  87 C87           -4.1748    11.8125    -7.1700 C.3     
  88 H88           -4.4861     9.3343    -6.3537 H       
  89 H89           -7.2912     9.7039    -5.6311 H       
  90 H90           -8.0195     7.8015    -7.1107 H       
  91 H91           -6.7779    10.1247    -8.6470 H       
  92 H92           -8.1861     9.1492    -9.1303 H       
  93 H93           -8.2970    10.2379    -7.7264 H       
  94 H94           -5.7771     6.7958    -7.4399 H       
  95 H95           -6.5402     7.1806    -9.0013 H       
  96 H96           -5.2643     8.2370    -8.3499 H       
  97 H97           -8.1305     7.6422    -4.4918 H       
  98 H98           -6.1297     5.5594    -4.0599 H       
  99 H99           -7.1870     7.2971    -1.7856 H       
 100 H100          -6.2906     5.7754    -1.5636 H       
 101 H101          -4.3673     6.7272    -2.8061 H       
 102 H102          -5.2638     8.2489    -3.0281 H       
 103 H103          -5.3896     8.5337    -0.5681 H       
 104 H104          -4.4931     7.0120    -0.3461 H       
 105 H105          -2.9772     8.7009    -2.0273 H       
 106 H106          -1.1868    10.1397     0.6049 H       
 107 H107          -4.1537     8.4931     1.2994 H       
 108 H108          -2.8764     9.3451     1.9814 H       
 109 H109          -9.8278     3.0311    -3.6950 H       
 110 H110          -9.0745     1.2143    -1.7252 H       
 111 H111          -8.5700     1.0759    -3.4414 H       
 112 H112          -7.0299     2.3260    -1.0968 H       
 113 H113          -6.4239     1.1982    -2.3559 H       
 114 H114          -6.5014     2.8854    -4.0721 H       
 115 H115          -5.9852     3.8499    -2.6550 H       
 116 H116         -11.2605     2.0863    -1.6252 H       
 117 H117         -11.0100     3.8314     0.7028 H       
 118 H118         -13.3627     4.6910     0.4213 H       
 119 H119         -11.4105     5.3831    -1.8208 H       
 120 H120         -12.7667     6.3985    -1.2751 H       
 121 H121         -11.3985     6.0788    -0.1825 H       
 122 H122         -14.0822     2.9001    -1.1780 H       
 123 H123         -14.4127     4.5382    -1.7910 H       
 124 H124         -13.0226     3.6180    -2.4150 H       
 125 H125         -12.7398     3.1708     2.4101 H       
 126 H126         -14.2623     0.7689     1.7465 H       
 127 H127         -13.2949    -0.5514     3.6092 H       
 128 H128         -12.0533    -0.1497     2.3987 H       
 129 H129         -12.1291     0.7550     3.9297 H       
 130 H130         -15.4537     0.0666     4.0334 H       
 131 H131         -16.5423     2.5501     5.1165 H       
 132 H132         -17.1247    -0.3832     5.7218 H       
 133 H133         -18.0068     0.9909     6.4302 H       
 134 H134         -19.7911    -0.4438     5.0943 H       
 135 H135         -20.0701     0.1091     3.5325 H       
 136 H136         -16.8655     2.3226     7.7823 H       
 137 H137         -14.4790     1.1772     9.0154 H       
 138 H138         -13.7391     3.3429     9.9698 H       
 139 H139         -13.6668     3.3705     8.1915 H       
 140 H140         -15.0029     4.1842     9.0406 H       
 141 H141         -14.5958     2.0282    11.5698 H       
 142 H142         -17.3655     2.4706    12.3826 H       
 143 H143         -15.8668    -0.1045    13.0397 H       
 144 H144         -17.3792     0.4123    13.8232 H       
 145 H145         -18.5128     0.4380    11.6180 H       
 146 H146         -17.0004    -0.0787    10.8345 H       
 147 H147         -17.0093    -2.1566    12.1877 H       
 148 H148         -18.5217    -1.6398    12.9712 H       
 149 H149         -18.9127    -1.6089    10.1743 H       
 150 H150         -19.1300    -5.1228    12.0724 H       
 151 H151         -20.0544    -3.4492     9.1842 H       
 152 H152         -20.1378    -4.9195     9.9929 H       
 153 H153         -17.2990     2.2410    15.0669 H       
 154 H154         -15.1169     4.0339    15.8097 H       
 155 H155         -17.4818     2.8987    17.3661 H       
 156 H156         -16.3017     4.0508    18.0358 H       
 157 H157         -17.9567     4.5567    15.5243 H       
 158 H158         -19.2234     6.1440    17.0010 H       
 159 H159         -19.4354     4.4411    17.4736 H       
 160 H160         -18.3406     5.4929    18.4028 H       
 161 H161         -15.8027     5.7783    15.6541 H       
 162 H162         -17.1797     6.8880    15.8562 H       
 163 H163         -16.2370     6.3718    17.2751 H       
 164 H164         -13.6248     1.7990    18.3055 H       
 165 H165           1.9179    28.1963   -12.8837 H       
 166 H166           2.8298    27.2210   -11.7067 H       
 167 H167           2.6971    26.6807   -13.3975 H       
 168 H168           0.3867    26.9117   -11.4161 H       
 169 H169           0.2540    26.3714   -13.1069 H       
 170 H170           1.7894    24.4850   -12.6246 H       
 171 H171           1.9221    25.0253   -10.9338 H       
 172 H172          -0.5209    24.7160   -10.6432 H       
 173 H173          -0.6537    24.1757   -12.3340 H       
 174 H174           0.8817    22.2893   -11.8517 H       
 175 H175           1.0144    22.8295   -10.1609 H       
 176 H176          -1.4286    22.5203    -9.8703 H       
 177 H177          -1.5613    21.9800   -11.5611 H       
 178 H178          -0.0260    20.0935   -11.0788 H       
 179 H179           0.1068    20.6338    -9.3880 H       
 180 H180          -2.3363    20.3246    -9.0974 H       
 181 H181          -2.4690    19.7843   -10.7882 H       
 182 H182          -0.9336    17.8978   -10.3059 H       
 183 H183          -0.8009    18.4381    -8.6151 H       
 184 H184          -3.2440    18.1288    -8.3245 H       
 185 H185          -3.3767    17.5885   -10.0153 H       
 186 H186          -1.8413    15.7021    -9.5330 H       
 187 H187          -1.7086    16.2424    -7.8422 H       
 188 H188          -4.1517    15.9331    -7.5517 H       
 189 H189          -4.2844    15.3928    -9.2424 H       
 190 H190          -2.7490    13.5064    -8.7601 H       
 191 H191          -2.6163    14.0467    -7.0694 H       
 192 H192          -5.0594    13.7374    -6.7788 H       
 193 H193          -5.1921    13.1971    -8.4695 H       
 194 H194          -3.5240    11.8510    -6.2965 H       
 195 H195          -3.6567    11.3107    -7.9872 H       
@<TRIPOS>BOND
   1    1    2 2
   2    1    4 1
   3    1   10 am
   4    3   71 am
   5    3    4 1
   6    3   88 1
   7    4    5 1
   8    4   89 1
   9    5    6 1
  10    5    7 1
  11    5   90 1
  12    6   91 1
  13    6   92 1
  14    6   93 1
  15    7   94 1
  16    7   95 1
  17    7   96 1
  18    8    9 2
  19    8   11 1
  20    8   21 am
  21   10   11 1
  22   10   97 1
  23   11   12 1
  24   11   98 1
  25   12   13 1
  26   12   99 1
  27   12  100 1
  28   13   14 1
  29   13  101 1
  30   13  102 1
  31   14   15 1
  32   14  103 1
  33   14  104 1
  34   15   16 1
  35   15  105 1
  36   16   17 2
  37   16   18 1
  38   17  106 1
  39   18  107 1
  40   18  108 1
  41   19   20 2
  42   19   28 am
  43   19   22 1
  44   21   22 1
  45   21   25 1
  46   22   23 1
  47   22  109 1
  48   23   24 1
  49   23  110 1
  50   23  111 1
  51   24   25 1
  52   24  112 1
  53   24  113 1
  54   25  114 1
  55   25  115 1
  56   26   27 2
  57   26   29 1
  58   26   35 am
  59   28   29 1
  60   28  116 1
  61   29   30 1
  62   29  117 1
  63   30   31 1
  64   30   32 1
  65   30  118 1
  66   31  119 1
  67   31  120 1
  68   31  121 1
  69   32  122 1
  70   32  123 1
  71   32  124 1
  72   33   34 2
  73   33   36 1
  74   33   40 am
  75   35   36 1
  76   35  125 1
  77   36   37 1
  78   36  126 1
  79   37  127 1
  80   37  128 1
  81   37  129 1
  82   38   39 2
  83   38   41 1
  84   38   48 am
  85   40   41 1
  86   40  130 1
  87   41   42 1
  88   41  131 1
  89   42   43 1
  90   42  132 1
  91   42  133 1
  92   43   44 2
  93   43   45 am
  94   45  134 1
  95   45  135 1
  96   46   47 2
  97   46   49 1
  98   46   53 am
  99   48   49 1
 100   48  136 1
 101   49   50 1
 102   49  137 1
 103   50  138 1
 104   50  139 1
 105   50  140 1
 106   51   52 2
 107   51   54 1
 108   51   64 am
 109   53   54 1
 110   53  141 1
 111   54   55 1
 112   54  142 1
 113   55   56 1
 114   55  143 1
 115   55  144 1
 116   56   57 1
 117   56  145 1
 118   56  146 1
 119   57   58 1
 120   57  147 1
 121   57  148 1
 122   58   59 1
 123   58  149 1
 124   59   60 2
 125   59   61 1
 126   60  150 1
 127   61  151 1
 128   61  152 1
 129   62   63 2
 130   62   65 1
 131   62   70 1
 132   64   65 1
 133   64  153 1
 134   65   66 1
 135   65  154 1
 136   66   67 1
 137   66  155 1
 138   66  156 1
 139   67   68 1
 140   67   69 1
 141   67  157 1
 142   68  158 1
 143   68  159 1
 144   68  160 1
 145   69  161 1
 146   69  162 1
 147   69  163 1
 148   70  164 1
 149   71   72 2
 150   71   87 1
 151   73   74 1
 152   73  165 1
 153   73  166 1
 154   73  167 1
 155   74   75 1
 156   74  168 1
 157   74  169 1
 158   75   76 1
 159   75  170 1
 160   75  171 1
 161   76   77 1
 162   76  172 1
 163   76  173 1
 164   77   78 1
 165   77  174 1
 166   77  175 1
 167   78   79 1
 168   78  176 1
 169   78  177 1
 170   79   80 1
 171   79  178 1
 172   79  179 1
 173   80   81 1
 174   80  180 1
 175   80  181 1
 176   81   82 1
 177   81  182 1
 178   81  183 1
 179   82   83 1
 180   82  184 1
 181   82  185 1
 182   83   84 1
 183   83  186 1
 184   83  187 1
 185   84   85 1
 186   84  188 1
 187   84  189 1
 188   85   86 1
 189   85  190 1
 190   85  191 1
 191   86   87 1
 192   86  192 1
 193   86  193 1
 194   87  194 1
 195   87  195 1

#	End of record

