#	Name: ASD02562108
#	Creating user name:	WinNT
#	Creation time:	15. 06. 2019 20:25

#	Modifying user name:	WinNT
#	Modification time:	15. 06. 2019 20:25

#	Program:	/corina/corina34_cracker 3.40 0067  02.08.2006

@<TRIPOS>MOLECULE
ASD02562108
  50   52    0    0    0
SMALL
NO_CHARGES


@<TRIPOS>ATOM
   1 N1             0.5918     1.5643     0.0132 N.am    
   2 C2             0.4723     0.3849     0.6475 C.2     
   3 N3             1.4216    -0.5619     0.5651 N.am    
   4 C4             2.5653    -0.3628    -0.1778 C.2     
   5 C5             2.7350     0.8133    -0.8394 C.2     
   6 C6             1.6833     1.8315    -0.7333 C.2     
   7 C7             3.6005    -1.4200    -0.2545 C.2     
   8 C8             4.9590    -1.1616     0.2620 C.ar    
   9 C9             5.9872    -2.0781     0.0234 C.ar    
  10 C10            3.9732     1.0652    -1.6606 C.3     
  11 C11            5.2248     0.0034     0.9872 C.ar    
  12 C12            6.4962     0.2380     1.4666 C.ar    
  13 C13            7.5081    -0.6767     1.2310 C.ar    
  14 C14            7.2536    -1.8300     0.5091 C.ar    
  15 O15           -0.5216     0.1696     1.3139 O.2     
  16 O16            1.7938     2.8978    -1.3091 O.2     
  17 C17            3.7144     0.6567    -3.1121 C.3     
  18 O18            3.3313    -2.4995    -0.7426 O.2     
  19 C19            8.3620    -2.8198     0.2584 C.3     
  20 C20            6.7849     1.4934     2.2487 C.3     
  21 C21            1.2382    -1.8285     1.2780 C.3     
  22 C22            0.7094    -2.8875     0.3085 C.3     
  23 C23            0.6203    -4.2714     0.9927 C.3     
  24 C24           -0.6356    -4.8969     0.4319 C.2     
  25 C25           -1.3955    -3.9992    -0.1342 C.2     
  26 C26           -0.7729    -2.6253    -0.0454 C.3     
  27 H27           -0.1133     2.2261     0.0897 H       
  28 H28            5.7900    -2.9784    -0.5396 H       
  29 H29            4.2261     2.1247    -1.6209 H       
  30 H30            4.8003     0.4790    -1.2601 H       
  31 H31            4.4364     0.7183     1.1712 H       
  32 H32            8.5021    -0.4875     1.6086 H       
  33 H33            4.6350     0.7559    -3.6872 H       
  34 H34            3.3764    -0.3791    -3.1433 H       
  35 H35            2.9474     1.3022    -3.5400 H       
  36 H36            8.3875    -3.5494     1.0678 H       
  37 H37            8.1846    -3.3321    -0.6872 H       
  38 H38            9.3156    -2.2937     0.2133 H       
  39 H39            6.5315     1.3349     3.2969 H       
  40 H40            7.8436     1.7389     2.1640 H       
  41 H41            6.1886     2.3145     1.8509 H       
  42 H42            2.1934    -2.1562     1.6882 H       
  43 H43            0.5233    -1.6889     2.0888 H       
  44 H44            1.3244    -2.9341    -0.5902 H       
  45 H45            1.4911    -4.8764     0.7403 H       
  46 H46            0.5372    -4.1561     2.0733 H       
  47 H47           -0.8733    -5.9488     0.4914 H       
  48 H48           -2.3443    -4.2107    -0.6046 H       
  49 H49           -1.2531    -2.0409     0.7396 H       
  50 H50           -0.8494    -2.1111    -1.0034 H       
@<TRIPOS>BOND
   1    1    2 am
   2    1    6 am
   3    1   27 1
   4    2    3 am
   5    2   15 2
   6    3    4 1
   7    3   21 1
   8    4    5 2
   9    4    7 1
  10    5    6 1
  11    5   10 1
  12    6   16 2
  13    7    8 1
  14    7   18 2
  15    8    9 ar
  16    8   11 ar
  17    9   14 ar
  18    9   28 1
  19   10   17 1
  20   10   29 1
  21   10   30 1
  22   11   12 ar
  23   11   31 1
  24   12   13 ar
  25   12   20 1
  26   13   14 ar
  27   13   32 1
  28   14   19 1
  29   17   33 1
  30   17   34 1
  31   17   35 1
  32   19   36 1
  33   19   37 1
  34   19   38 1
  35   20   39 1
  36   20   40 1
  37   20   41 1
  38   21   22 1
  39   21   42 1
  40   21   43 1
  41   22   23 1
  42   22   26 1
  43   22   44 1
  44   23   24 1
  45   23   45 1
  46   23   46 1
  47   24   25 2
  48   24   47 1
  49   25   26 1
  50   25   48 1
  51   26   49 1
  52   26   50 1

#	End of record

