#	Name: ASD01410359
#	Creating user name:	WinNT
#	Creation time:	15. 06. 2019 19:17

#	Modifying user name:	WinNT
#	Modification time:	15. 06. 2019 19:17

#	Program:	/corina/corina34_cracker 3.40 0067  02.08.2006

@<TRIPOS>MOLECULE
ASD01410359
  76   81    0    0    0
SMALL
NO_CHARGES


@<TRIPOS>ATOM
   1 N1             0.0813     1.5579     0.4246 N.pl3   
   2 C2             0.1225     0.1911     0.5697 C.2     
   3 C3            -1.1435    -0.2889     0.6638 C.2     
   4 C4            -2.0309     0.8105     0.5760 C.ar    
   5 C5            -1.2360     1.9658     0.4314 C.ar    
   6 C6            -3.4285     0.9223     0.6111 C.ar    
   7 C7            -4.0172     2.1442     0.5000 C.ar    
   8 C8            -3.2346     3.2991     0.3498 C.ar    
   9 C9            -1.8444     3.2068     0.3196 C.ar    
  10 C10           -2.3212    -1.9023     2.1331 C.3     
  11 C11           -2.7184    -3.3700     2.3033 C.3     
  12 C12           -3.5890    -3.8031     1.1220 C.3     
  13 C13           -2.8025    -3.6352    -0.1796 C.3     
  14 C14           -2.4053    -2.1675    -0.3498 C.3     
  15 C15           -1.5347    -1.7345     0.8315 C.3     
  16 C16            1.2457     2.4370     0.2912 C.3     
  17 C17            1.5973     2.5871    -1.1665 C.2     
  18 O18            0.9400     2.0160    -2.0108 O.2     
  19 C19            2.9973     3.5120    -2.9491 C.3     
  20 N20            2.6422     3.3559    -1.5320 N.am    
  21 C21            3.4475     4.0543    -0.5209 C.3     
  22 C22            4.4762     3.1555    -3.1290 C.3     
  23 C23            4.9215     3.6918    -0.7280 C.3     
  24 C24            5.3206     4.0009    -2.1727 C.3     
  25 C25            8.6356     4.4898    -3.6557 C.3     
  26 C26            7.1749     4.0100    -3.7425 C.3     
  27 N27            6.7422     3.6855    -2.3659 N.3     
  28 C28            7.5961     4.5059    -1.4691 C.3     
  29 C29            8.9862     4.4458    -2.1506 C.3     
  30 C30            3.6039    -2.1582     0.7167 C.ar    
  31 C31            2.4144    -2.5621     1.2950 C.ar    
  32 N32            1.3393    -1.8037     1.2319 N.ar    
  33 C33            1.3529    -0.6273     0.6154 C.ar    
  34 C34            2.5194    -0.1581     0.0102 C.ar    
  35 C35            3.6626    -0.9357     0.0616 C.ar    
  36 C36           -3.8857     4.6167     0.2305 C.2     
  37 O37           -3.2105     5.6185     0.1004 O.2     
  38 O38           -5.2296     4.7098     0.2658 O.3     
  39 H39           -4.0379     0.0381     0.7261 H       
  40 H40           -5.0938     2.2255     0.5272 H       
  41 H41           -1.2440     4.0970     0.2040 H       
  42 H42           -3.2187    -1.2848     2.0975 H       
  43 H43           -1.7010    -1.5938     2.9747 H       
  44 H44           -1.8210    -3.9876     2.3389 H       
  45 H45           -3.2787    -3.4896     3.2306 H       
  46 H46           -3.8720    -4.8487     1.2432 H       
  47 H47           -4.4865    -3.1855     1.0864 H       
  48 H48           -1.9050    -4.2528    -0.1441 H       
  49 H49           -3.4227    -3.9437    -1.0212 H       
  50 H50           -1.8450    -2.0480    -1.2771 H       
  51 H51           -3.3028    -1.5500    -0.3854 H       
  52 H52           -0.6372    -2.3521     0.8670 H       
  53 H53            1.0124     3.4153     0.7112 H       
  54 H54            2.0910     2.0040     0.8261 H       
  55 H55            2.3843     2.8447    -3.5551 H       
  56 H56            2.8303     4.5444    -3.2561 H       
  57 H57            3.3173     5.1310    -0.6298 H       
  58 H58            3.1316     3.7449     0.4754 H       
  59 H59            4.6252     2.0985    -2.9083 H       
  60 H60            4.7771     3.3590    -4.1567 H       
  61 H61            5.5392     4.2769    -0.0467 H       
  62 H62            5.0662     2.6297    -0.5299 H       
  63 H63            5.1523     5.0582    -2.3776 H       
  64 H64            9.2878     3.8197    -4.2158 H       
  65 H65            8.7225     5.5080    -4.0348 H       
  66 H66            6.5476     4.8018    -4.1519 H       
  67 H67            7.1126     3.1212    -4.3704 H       
  68 H68            7.2330     5.5327    -1.4256 H       
  69 H69            7.6376     4.0687    -0.4715 H       
  70 H70            9.4985     3.5167    -1.9009 H       
  71 H71            9.5909     5.3083    -1.8702 H       
  72 H72            4.4804    -2.7862     0.7779 H       
  73 H73            2.3662    -3.5128     1.8052 H       
  74 H74            2.5296     0.7982    -0.4916 H       
  75 H75            4.5804    -0.5989    -0.3973 H       
  76 H76           -5.6107     5.5948     0.1838 H       
@<TRIPOS>BOND
   1    1    2 1
   2    1   16 1
   3    1    5 1
   4    2    3 2
   5    2   33 1
   6    3    4 1
   7    3   15 1
   8    4    5 ar
   9    4    6 ar
  10    5    9 ar
  11    6    7 ar
  12    6   39 1
  13    7    8 ar
  14    7   40 1
  15    8    9 ar
  16    8   36 1
  17    9   41 1
  18   10   11 1
  19   10   15 1
  20   10   42 1
  21   10   43 1
  22   11   12 1
  23   11   44 1
  24   11   45 1
  25   12   13 1
  26   12   46 1
  27   12   47 1
  28   13   14 1
  29   13   48 1
  30   13   49 1
  31   14   15 1
  32   14   50 1
  33   14   51 1
  34   15   52 1
  35   16   17 1
  36   16   53 1
  37   16   54 1
  38   17   18 2
  39   17   20 am
  40   19   20 1
  41   19   22 1
  42   19   55 1
  43   19   56 1
  44   20   21 1
  45   21   23 1
  46   21   57 1
  47   21   58 1
  48   22   24 1
  49   22   59 1
  50   22   60 1
  51   23   24 1
  52   23   61 1
  53   23   62 1
  54   24   27 1
  55   24   63 1
  56   25   26 1
  57   25   29 1
  58   25   64 1
  59   25   65 1
  60   26   27 1
  61   26   66 1
  62   26   67 1
  63   27   28 1
  64   28   29 1
  65   28   68 1
  66   28   69 1
  67   29   70 1
  68   29   71 1
  69   30   31 ar
  70   30   35 ar
  71   30   72 1
  72   31   32 ar
  73   31   73 1
  74   32   33 ar
  75   33   34 ar
  76   34   35 ar
  77   34   74 1
  78   35   75 1
  79   36   37 2
  80   36   38 1
  81   38   76 1

#	End of record

