#	Name: ASD01880149
#	Creating user name:	WinNT
#	Creation time:	15. 06. 2019 19:40

#	Modifying user name:	WinNT
#	Modification time:	15. 06. 2019 19:40

#	Program:	/corina/corina34_cracker 3.40 0067  02.08.2006

@<TRIPOS>MOLECULE
ASD01880149
  51   54    0    0    0
SMALL
NO_CHARGES


@<TRIPOS>ATOM
   1 C1            -0.0168     1.3866     0.0097 C.ar    
   2 C2             0.0021    -0.0041     0.0020 C.ar    
   3 C3            -1.1908    -0.7171     0.0091 C.ar    
   4 C4            -2.3920    -0.0608     0.0240 C.ar    
   5 C5            -2.4274     1.3358     0.0323 C.ar    
   6 C6            -1.2195     2.0577     0.0305 C.ar    
   7 C7            -3.8022    -0.6015     0.0346 C.3     
   8 C8            -4.7307     0.6205     0.0505 C.3     
   9 C9            -3.8138     1.8193     0.0485 C.2     
  10 Cl10          -1.2453     3.7935     0.0407 Cl      
  11 Cl11           1.4742     2.2757     0.0002 Cl      
  12 O12           -4.1620     2.9813     0.0585 O.2     
  13 C13            2.5330    -2.6494    -0.0363 C.ar    
  14 C14            1.1324    -2.0935    -0.0200 C.3     
  15 O15            1.1867    -0.6655    -0.0128 O.3     
  16 C16            3.1845    -2.9098     1.1563 C.ar    
  17 C17            4.4666    -3.4187     1.1487 C.ar    
  18 C18            5.1069    -3.6709    -0.0662 C.ar    
  19 C19            4.4437    -3.4057    -1.2660 C.ar    
  20 C20            3.1596    -2.9022    -1.2438 C.ar    
  21 C21            6.4801    -4.2154    -0.0822 C.2     
  22 C22           -5.6170     0.6290    -1.1966 C.3     
  23 C23           -5.5927     0.6147     1.3145 C.3     
  24 C24           -6.5592     1.8584    -1.1921 C.3     
  25 C25           -6.9052     2.0754    -2.6797 C.3     
  26 C26           -5.7661     1.4369    -3.4936 C.3     
  27 C27           -4.7676     0.8541    -2.4721 C.3     
  28 O28            7.0950    -4.4576    -1.2561 O.3     
  29 O29            7.0547    -4.4447     0.9631 O.2     
  30 H30           -1.1699    -1.7969     0.0024 H       
  31 H31           -3.9818    -1.1967    -0.8607 H       
  32 H32           -3.9646    -1.2069     0.9263 H       
  33 H33            0.5967    -2.4322    -0.9067 H       
  34 H34            0.6136    -2.4418     0.8731 H       
  35 H35            2.6882    -2.7140     2.0953 H       
  36 H36            4.9741    -3.6212     2.0803 H       
  37 H37            4.9332    -3.5986    -2.2091 H       
  38 H38            2.6454    -2.6967    -2.1710 H       
  39 H39           -6.1892    -0.2959    -1.2684 H       
  40 H40           -4.9486     0.6326     2.1937 H       
  41 H41           -6.2375     1.4935     1.3186 H       
  42 H42           -6.2062    -0.2861     1.3318 H       
  43 H43           -7.4610     1.6458    -0.6178 H       
  44 H44           -6.0457     2.7311    -0.7886 H       
  45 H45           -7.8517     1.5899    -2.9176 H       
  46 H46           -6.9670     3.1417    -2.8969 H       
  47 H47           -6.1597     0.6415    -4.1265 H       
  48 H48           -5.2751     2.1933    -4.1058 H       
  49 H49           -3.9648     1.5646    -2.2754 H       
  50 H50           -4.3619    -0.0914    -2.8320 H       
  51 H51            7.9931    -4.8138    -1.2159 H       
@<TRIPOS>BOND
   1    1    2 ar
   2    1   11 1
   3    1    6 ar
   4    2    3 ar
   5    2   15 1
   6    3    4 ar
   7    3   30 1
   8    4    5 ar
   9    4    7 1
  10    5    6 ar
  11    5    9 1
  12    6   10 1
  13    7    8 1
  14    7   31 1
  15    7   32 1
  16    8    9 1
  17    8   22 1
  18    8   23 1
  19    9   12 2
  20   13   14 1
  21   13   16 ar
  22   13   20 ar
  23   14   15 1
  24   14   33 1
  25   14   34 1
  26   16   17 ar
  27   16   35 1
  28   17   18 ar
  29   17   36 1
  30   18   19 ar
  31   18   21 1
  32   19   20 ar
  33   19   37 1
  34   20   38 1
  35   21   28 1
  36   21   29 2
  37   22   24 1
  38   22   27 1
  39   22   39 1
  40   23   40 1
  41   23   41 1
  42   23   42 1
  43   24   25 1
  44   24   43 1
  45   24   44 1
  46   25   26 1
  47   25   45 1
  48   25   46 1
  49   26   27 1
  50   26   47 1
  51   26   48 1
  52   27   49 1
  53   27   50 1
  54   28   51 1

#	End of record

