#	Name: ASD01884465
#	Creating user name:	WinNT
#	Creation time:	15. 06. 2019 19:48

#	Modifying user name:	WinNT
#	Modification time:	15. 06. 2019 19:48

#	Program:	/corina/corina34_cracker 3.40 0067  02.08.2006

@<TRIPOS>MOLECULE
ASD01884465
  41   43    0    0    0
SMALL
NO_CHARGES


@<TRIPOS>ATOM
   1 C1            -0.0164     1.3576     0.0095 C.2     
   2 C2             0.0021    -0.0041     0.0020 C.2     
   3 C3             1.2440    -0.6751    -0.0134 C.2     
   4 C4             2.4024     0.0465    -0.0206 C.2     
   5 N5             2.3700     1.4023    -0.0126 N.am    
   6 C6             1.1986     2.0652     0.0017 C.2     
   7 C7             1.2897    -2.1584    -0.0214 C.ar    
   8 C8             3.6266     2.1554    -0.0196 C.3     
   9 O9             1.1911     3.2856     0.0083 O.2     
  10 C10            4.0447     2.4218    -1.4427 C.ar    
  11 C11            3.6210     3.5709    -2.0838 C.ar    
  12 C12            4.0041     3.8158    -3.3890 C.ar    
  13 C13            4.8119     2.9105    -4.0539 C.ar    
  14 C14            5.2357     1.7606    -3.4118 C.ar    
  15 C15            4.8565     1.5196    -2.1047 C.ar    
  16 C16            0.8124    -2.8767     1.0728 C.ar    
  17 C17            1.8048    -2.8345    -1.1256 C.ar    
  18 C18            1.8467    -4.2145    -1.1337 C.ar    
  19 C19            1.3774    -4.9314    -0.0444 C.ar    
  20 C20            0.8565    -4.2612     1.0612 C.ar    
  21 Cl21           5.2931     3.2170    -5.6935 Cl      
  22 O22            1.4200    -6.2908    -0.0566 O.3     
  23 C23            1.9610    -6.9125    -1.2240 C.3     
  24 N24            0.3829    -4.9863     2.1607 N.pl3   
  25 H25           -0.9563     1.8895     0.0169 H       
  26 H26           -0.9217    -0.5635     0.0082 H       
  27 H27            3.3528    -0.4664    -0.0325 H       
  28 H28            3.4854     3.1026     0.5010 H       
  29 H29            4.4003     1.5759     0.4840 H       
  30 H30            2.9901     4.2773    -1.5647 H       
  31 H31            3.6727     4.7134    -3.8898 H       
  32 H32            5.8662     1.0536    -3.9303 H       
  33 H33            5.1872     0.6221    -1.6033 H       
  34 H34            0.4092    -2.3553     1.9284 H       
  35 H35            2.1713    -2.2786    -1.9759 H       
  36 H36            2.2457    -4.7365    -1.9909 H       
  37 H37            1.3679    -6.6303    -2.0939 H       
  38 H38            2.9912    -6.5859    -1.3653 H       
  39 H39            1.9364    -7.9955    -1.1034 H       
  40 H40            0.4170    -5.9557     2.1535 H       
  41 H41            0.0205    -4.5195     2.9299 H       
@<TRIPOS>BOND
   1    1    2 2
   2    1    6 1
   3    1   25 1
   4    2    3 1
   5    2   26 1
   6    3    4 2
   7    3    7 1
   8    4    5 1
   9    4   27 1
  10    5    6 am
  11    5    8 1
  12    6    9 2
  13    7   16 ar
  14    7   17 ar
  15    8   10 1
  16    8   28 1
  17    8   29 1
  18   10   11 ar
  19   10   15 ar
  20   11   12 ar
  21   11   30 1
  22   12   13 ar
  23   12   31 1
  24   13   14 ar
  25   13   21 1
  26   14   15 ar
  27   14   32 1
  28   15   33 1
  29   16   20 ar
  30   16   34 1
  31   17   18 ar
  32   17   35 1
  33   18   19 ar
  34   18   36 1
  35   19   20 ar
  36   19   22 1
  37   20   24 1
  38   22   23 1
  39   23   37 1
  40   23   38 1
  41   23   39 1
  42   24   40 1
  43   24   41 1

#	End of record

