#	Name: ASD03092289
#	Creating user name:	WinNT
#	Creation time:	15. 06. 2019 20:32

#	Modifying user name:	WinNT
#	Modification time:	15. 06. 2019 20:32

#	Program:	/corina/corina34_cracker 3.40 0067  02.08.2006

@<TRIPOS>MOLECULE
ASD03092289
  35   37    0    0    0
SMALL
NO_CHARGES


@<TRIPOS>ATOM
   1 C1            -0.0169     1.3919     0.0097 C.ar    
   2 C2             0.0021    -0.0041     0.0020 C.ar    
   3 C3             1.2236    -0.6800    -0.0133 C.ar    
   4 C4             2.4034     0.0338    -0.0207 C.ar    
   5 C5             2.3782     1.4186    -0.0130 C.ar    
   6 C6             1.1695     2.0948     0.0021 C.ar    
   7 Cl7            3.8676     2.3104    -0.0219 Cl      
   8 C8            -1.2658    -0.7632     0.0105 C.2     
   9 O9            -2.3280    -0.1722     0.0243 O.2     
  10 N10           -1.2445    -2.1108     0.0031 N.am    
  11 C11           -2.5014    -2.8634     0.0115 C.3     
  12 C12           -2.2636    -4.2544     0.6125 C.3     
  13 C13           -3.5850    -5.0328     0.5822 C.3     
  14 C14           -4.0654    -5.1353    -0.8681 C.3     
  15 N15           -3.1054    -4.4551    -1.7484 N.3     
  16 C16           -3.0121    -3.0255    -1.4231 C.3     
  17 C17           -1.2396    -4.9946    -0.2573 C.3     
  18 C18           -1.7858    -5.0984    -1.6841 C.3     
  19 H19           -0.9588     1.9203     0.0170 H       
  20 H20            1.2444    -1.7598    -0.0189 H       
  21 H21            3.3489    -0.4880    -0.0322 H       
  22 H22            1.1561     3.1747     0.0081 H       
  23 H23           -0.3969    -2.5824    -0.0079 H       
  24 H24           -3.2424    -2.3301     0.6070 H       
  25 H25           -1.9055    -4.1634     1.6380 H       
  26 H26           -3.4291    -6.0328     0.9868 H       
  27 H27           -4.3317    -4.5080     1.1781 H       
  28 H28           -4.1400    -6.1847    -1.1532 H       
  29 H29           -5.0430    -4.6623    -0.9617 H       
  30 H30           -3.9970    -2.5672    -1.5125 H       
  31 H31           -2.3209    -2.5402    -2.1121 H       
  32 H32           -0.3000    -4.4423    -0.2652 H       
  33 H33           -1.0743    -5.9944     0.1441 H       
  34 H34           -1.8790    -6.1481    -1.9624 H       
  35 H35           -1.1037    -4.5986    -2.3719 H       
@<TRIPOS>BOND
   1    1    2 ar
   2    1    6 ar
   3    1   19 1
   4    2    3 ar
   5    2    8 1
   6    3    4 ar
   7    3   20 1
   8    4    5 ar
   9    4   21 1
  10    5    6 ar
  11    5    7 1
  12    6   22 1
  13    8    9 2
  14    8   10 am
  15   10   11 1
  16   10   23 1
  17   11   12 1
  18   11   16 1
  19   11   24 1
  20   12   13 1
  21   12   17 1
  22   12   25 1
  23   13   14 1
  24   13   26 1
  25   13   27 1
  26   14   15 1
  27   14   28 1
  28   14   29 1
  29   15   16 1
  30   15   18 1
  31   16   30 1
  32   16   31 1
  33   17   18 1
  34   17   32 1
  35   17   33 1
  36   18   34 1
  37   18   35 1

#	End of record

