#	Name: ASD01880070
#	Creating user name:	WinNT
#	Creation time:	15. 06. 2019 19:39

#	Modifying user name:	WinNT
#	Modification time:	15. 06. 2019 19:39

#	Program:	/corina/corina34_cracker 3.40 0067  02.08.2006

@<TRIPOS>MOLECULE
ASD01880070
  47   49    0    0    0
SMALL
NO_CHARGES


@<TRIPOS>ATOM
   1 C1            -0.3873     1.3927    -1.1960 C.ar    
   2 C2            -0.3800     0.0122    -1.2555 C.ar    
   3 N3             0.6835    -0.6734    -0.8835 N.ar    
   4 C4             1.7742    -0.0770    -0.4439 C.ar    
   5 C5             1.8404     1.3010    -0.3572 C.ar    
   6 C6             0.7418     2.0554    -0.7388 C.ar    
   7 C7             3.0907     1.9746     0.1469 C.3     
   8 N8             3.9850     2.2506    -0.9802 N.am    
   9 C9             3.8212     3.4163    -1.7327 C.ar    
  10 S10            5.1900     1.1809    -1.3623 S.o2    
  11 C11            4.4232     0.0387    -2.5446 C.3     
  12 C12            5.4953    -0.8788    -3.1361 C.3     
  13 O13            6.1749     1.9778    -2.0059 O.2     
  14 O14            5.4705     0.5169    -0.1377 O.2     
  15 C15            3.2160     4.5273    -1.1665 C.ar    
  16 C16            3.0548     5.6895    -1.9229 C.ar    
  17 C17            3.5045     5.7244    -3.2449 C.ar    
  18 C18            4.1056     4.6126    -3.7987 C.ar    
  19 C19            4.2703     3.4637    -3.0479 C.ar    
  20 C20            2.4104     6.8782    -1.3273 C.2     
  21 C21            2.6686     8.2191    -1.8914 C.ar    
  22 C22            1.7558     9.2557    -1.6830 C.ar    
  23 C23            2.0035    10.5050    -2.2122 C.ar    
  24 C24            3.1531    10.7328    -2.9482 C.ar    
  25 C25            4.0615     9.7103    -3.1591 C.ar    
  26 C26            3.8294     8.4575    -2.6309 C.ar    
  27 O27            1.6678     6.7530    -0.3732 O.2     
  28 H28           -1.2598     1.9488    -1.5058 H       
  29 H29           -1.2553    -0.5114    -1.6103 H       
  30 H30            2.6255    -0.6719    -0.1479 H       
  31 H31            0.7649     3.1337    -0.6818 H       
  32 H32            2.8261     2.9108     0.6385 H       
  33 H33            3.5943     1.3203     0.8585 H       
  34 H34            3.6717    -0.5631    -2.0334 H       
  35 H35            3.9501     0.6077    -3.3450 H       
  36 H36            5.0345    -1.5652    -3.8465 H       
  37 H37            6.2467    -0.2771    -3.6473 H       
  38 H38            5.9684    -1.4478    -2.3357 H       
  39 H39            2.8701     4.4938    -0.1440 H       
  40 H40            3.3815     6.6214    -3.8336 H       
  41 H41            4.4523     4.6415    -4.8211 H       
  42 H42            4.7416     2.5968    -3.4871 H       
  43 H43            0.8581     9.0792    -1.1091 H       
  44 H44            1.2985    11.3073    -2.0521 H       
  45 H45            3.3420    11.7130    -3.3603 H       
  46 H46            4.9564     9.8949    -3.7347 H       
  47 H47            4.5393     7.6605    -2.7959 H       
@<TRIPOS>BOND
   1    1    2 ar
   2    1    6 ar
   3    1   28 1
   4    2    3 ar
   5    2   29 1
   6    3    4 ar
   7    4    5 ar
   8    4   30 1
   9    5    6 ar
  10    5    7 1
  11    6   31 1
  12    7    8 1
  13    7   32 1
  14    7   33 1
  15    8    9 1
  16    8   10 am
  17    9   15 ar
  18    9   19 ar
  19   10   11 1
  20   10   13 2
  21   10   14 2
  22   11   12 1
  23   11   34 1
  24   11   35 1
  25   12   36 1
  26   12   37 1
  27   12   38 1
  28   15   16 ar
  29   15   39 1
  30   16   17 ar
  31   16   20 1
  32   17   18 ar
  33   17   40 1
  34   18   19 ar
  35   18   41 1
  36   19   42 1
  37   20   21 1
  38   20   27 2
  39   21   22 ar
  40   21   26 ar
  41   22   23 ar
  42   22   43 1
  43   23   24 ar
  44   23   44 1
  45   24   25 ar
  46   24   45 1
  47   25   26 ar
  48   25   46 1
  49   26   47 1

#	End of record

