#	Name: ASD01917544
#	Creating user name:	WinNT
#	Creation time:	15. 06. 2019 20:09

#	Modifying user name:	WinNT
#	Modification time:	15. 06. 2019 20:09

#	Program:	/corina/corina34_cracker 3.40 0067  02.08.2006

@<TRIPOS>MOLECULE
ASD01917544
  39   41    0    0    0
SMALL
NO_CHARGES


@<TRIPOS>ATOM
   1 C1            -0.0095     1.3746    -0.0542 C.ar    
   2 C2             0.0102    -0.0043    -0.0735 C.ar    
   3 C3             1.2160    -0.6821    -0.1149 C.ar    
   4 C4             2.4101     0.0169    -0.1377 C.ar    
   5 C5             2.4064     1.3959    -0.1188 C.ar    
   6 C6             1.1925     2.0874    -0.0770 C.ar    
   7 C7             1.1804     3.5192    -0.0577 C.1     
   8 C8             1.1705     4.6931    -0.0419 C.1     
   9 C9             1.1583     6.1249    -0.0225 C.ar    
  10 N10           -0.0184     8.1527     0.0421 N.ar    
  11 C11           -0.0514     6.8346     0.0253 C.ar    
  12 C12            2.3560     6.8560    -0.0450 C.ar    
  13 N13            2.3007     8.1733    -0.0256 N.ar    
  14 C14            1.1357     8.8062     0.0146 C.ar    
  15 C15            1.1231    10.2883     0.0346 C.2     
  16 C16            0.4340    12.4143     0.0127 C.3     
  17 N17            0.0415    10.9970    -0.0385 N.2     
  18 N18            2.2588    11.0582     0.1387 N.am    
  19 C19            1.9446    12.3709     0.1324 C.2     
  20 C20            0.0147    13.1339    -1.2708 C.3     
  21 C21           -0.1788    13.0970     1.2371 C.3     
  22 O22            2.7059    13.3118     0.2061 O.2     
  23 C23            3.6201    10.5268     0.2425 C.3     
  24 H24           -0.9513     1.9022    -0.0261 H       
  25 H25           -0.9178    -0.5565    -0.0559 H       
  26 H26            1.2251    -1.7619    -0.1291 H       
  27 H27            3.3473    -0.5188    -0.1700 H       
  28 H28            3.3392     1.9401    -0.1359 H       
  29 H29           -0.9948     6.3094     0.0476 H       
  30 H30            3.3083     6.3475    -0.0773 H       
  31 H31           -1.0697    13.0927    -1.3727 H       
  32 H32            0.3362    14.1744    -1.2255 H       
  33 H33            0.4790    12.6472    -2.1285 H       
  34 H34            0.1495    12.5844     2.1412 H       
  35 H35            0.1434    14.1377     1.2721 H       
  36 H36           -1.2660    13.0554     1.1702 H       
  37 H37            3.5809     9.4404     0.3223 H       
  38 H38            4.1876    10.8056    -0.6453 H       
  39 H39            4.1045    10.9390     1.1277 H       
@<TRIPOS>BOND
   1    1    2 ar
   2    1    6 ar
   3    1   24 1
   4    2    3 ar
   5    2   25 1
   6    3    4 ar
   7    3   26 1
   8    4    5 ar
   9    4   27 1
  10    5    6 ar
  11    5   28 1
  12    6    7 1
  13    7    8 3
  14    8    9 1
  15    9   12 ar
  16    9   11 ar
  17   10   11 ar
  18   10   14 ar
  19   11   29 1
  20   12   13 ar
  21   12   30 1
  22   13   14 ar
  23   14   15 1
  24   15   18 1
  25   15   17 2
  26   16   17 1
  27   16   19 1
  28   16   20 1
  29   16   21 1
  30   18   19 am
  31   18   23 1
  32   19   22 2
  33   20   31 1
  34   20   32 1
  35   20   33 1
  36   21   34 1
  37   21   35 1
  38   21   36 1
  39   23   37 1
  40   23   38 1
  41   23   39 1

#	End of record

