#	Name: ASD00111116
#	Creating user name:	WinNT
#	Creation time:	15. 06. 2019 18:30

#	Modifying user name:	WinNT
#	Modification time:	15. 06. 2019 18:30

#	Program:	/corina/corina34_cracker 3.40 0067  02.08.2006

@<TRIPOS>MOLECULE
ASD00111116
  30   31    0    0    0
SMALL
NO_CHARGES


@<TRIPOS>ATOM
   1 N1            -0.0176     1.4494     0.0100 N.am    
   2 C2             0.0021    -0.0041     0.0020 C.3     
   3 C3             0.6858    -0.4724    -1.2721 C.2     
   4 C4             2.1596    -0.3651    -1.3330 C.ar    
   5 C5             2.7709     0.8860    -1.3354 C.ar    
   6 C6             1.9140     2.1365    -1.3387 C.3     
   7 C7             1.1962     2.2648     0.0028 C.3     
   8 C8             4.1445     0.9887    -1.3516 C.ar    
   9 C9             4.9207    -0.1573    -1.3908 C.ar    
  10 C10            4.3216    -1.4051    -1.4130 C.ar    
  11 C11            2.9449    -1.5172    -1.3825 C.ar    
  12 C12           -0.0118    -0.9586    -2.2892 C.2     
  13 Cl13           5.3042    -2.8348    -1.4789 Cl      
  14 C14           -1.2113     2.0751     0.0190 C.2     
  15 O15           -1.2607     3.2869     0.0258 O.2     
  16 C16           -2.4846     1.2691     0.0205 C.3     
  17 F17           -3.5841     2.1341     0.0304 F       
  18 F18           -2.5312     0.4686    -1.1259 F       
  19 F19           -2.5206     0.4562     1.1586 F       
  20 H20            0.5546    -0.3673     0.8685 H       
  21 H21           -1.0192    -0.3841     0.0303 H       
  22 H22            2.5463     3.0100    -1.4974 H       
  23 H23            1.1778     2.0704    -2.1398 H       
  24 H24            0.9307     3.3085     0.1714 H       
  25 H25            1.8599     1.9308     0.8004 H       
  26 H26            4.6149     1.9608    -1.3342 H       
  27 H27            5.9977    -0.0773    -1.4044 H       
  28 H28            2.4791    -2.4915    -1.3970 H       
  29 H29           -1.0875    -1.0279    -2.2221 H       
  30 H30            0.4955    -1.2854    -3.1848 H       
@<TRIPOS>BOND
   1    1    2 1
   2    1    7 1
   3    1   14 am
   4    2    3 1
   5    2   20 1
   6    2   21 1
   7    3    4 1
   8    3   12 2
   9    4    5 ar
  10    4   11 ar
  11    5    6 1
  12    5    8 ar
  13    6    7 1
  14    6   22 1
  15    6   23 1
  16    7   24 1
  17    7   25 1
  18    8    9 ar
  19    8   26 1
  20    9   10 ar
  21    9   27 1
  22   10   11 ar
  23   10   13 1
  24   11   28 1
  25   12   29 1
  26   12   30 1
  27   14   15 2
  28   14   16 1
  29   16   17 1
  30   16   18 1
  31   16   19 1

#	End of record

