#	Name: ASD01948240
#	Creating user name:	WinNT
#	Creation time:	15. 06. 2019 20:14

#	Modifying user name:	WinNT
#	Modification time:	15. 06. 2019 20:14

#	Program:	/corina/corina34_cracker 3.40 0067  02.08.2006

@<TRIPOS>MOLECULE
ASD01948240
  29   31    0    0    0
SMALL
NO_CHARGES


@<TRIPOS>ATOM
   1 C1            -0.0167     1.3794     0.0096 C.ar    
   2 C2             0.0021    -0.0041     0.0020 C.ar    
   3 C3             1.2073    -0.6821    -0.0131 C.ar    
   4 C4             2.3974     0.0199    -0.0207 C.ar    
   5 C5             2.3837     1.4074    -0.0131 C.ar    
   6 C6             1.1707     2.0877     0.0021 C.ar    
   7 C7             4.0435     2.4176    -2.5191 C.ar    
   8 C8             4.2830     2.5448    -1.1572 C.ar    
   9 N9             3.5898     2.1219    -0.0203 N.am    
  10 C10            4.9353     2.9557    -3.4308 C.ar    
  11 C11            6.0712     3.6237    -2.9870 C.ar    
  12 C12            6.3158     3.7539    -1.6249 C.ar    
  13 C13            5.4217     3.2144    -0.7083 C.ar    
  14 N14            5.3870     3.1788     0.6868 N.am    
  15 C15            4.2777     2.5176     1.0672 C.2     
  16 O16            3.9467     2.3095     2.2197 O.2     
  17 I17           -1.7991    -1.0739     0.0141 I       
  18 F18            4.7016     2.8311    -4.7556 F       
  19 F19            1.1527     3.4386     0.0095 F       
  20 F20            2.9438     1.7644    -2.9540 F       
  21 O21            7.4281     4.4076    -1.1902 O.3     
  22 N22            6.9724     4.1671    -3.9159 N.pl3   
  23 H23           -0.9594     1.9063     0.0169 H       
  24 H24            1.2183    -1.7621    -0.0187 H       
  25 H25            3.3379    -0.5111    -0.0321 H       
  26 H26            6.0497     3.5644     1.2810 H       
  27 H27            7.2995     5.3566    -1.0565 H       
  28 H28            6.8026     4.0764    -4.8666 H       
  29 H29            7.7651     4.6332    -3.6071 H       
@<TRIPOS>BOND
   1    1    2 ar
   2    1    6 ar
   3    1   23 1
   4    2    3 ar
   5    2   17 1
   6    3    4 ar
   7    3   24 1
   8    4    5 ar
   9    4   25 1
  10    5    6 ar
  11    5    9 1
  12    6   19 1
  13    7    8 ar
  14    7   10 ar
  15    7   20 1
  16    8    9 1
  17    8   13 ar
  18    9   15 am
  19   10   11 ar
  20   10   18 1
  21   11   12 ar
  22   11   22 1
  23   12   13 ar
  24   12   21 1
  25   13   14 1
  26   14   15 am
  27   14   26 1
  28   15   16 2
  29   21   27 1
  30   22   28 1
  31   22   29 1

#	End of record

