#	Name: ASD01870320
#	Creating user name:	WinNT
#	Creation time:	15. 06. 2019 19:39

#	Modifying user name:	WinNT
#	Modification time:	15. 06. 2019 19:39

#	Program:	/corina/corina34_cracker 3.40 0067  02.08.2006

@<TRIPOS>MOLECULE
ASD01870320
  53   55    0    0    0
SMALL
NO_CHARGES


@<TRIPOS>ATOM
   1 C1            -0.0130     1.3551    -0.5712 C.ar    
   2 C2             0.0050    -0.0204    -0.4667 C.ar    
   3 C3             1.1740     2.0655    -0.5973 C.ar    
   4 C4             2.3860     1.4027    -0.5189 C.ar    
   5 C5             2.4180     0.0274    -0.4146 C.ar    
   6 C6             1.2242    -0.6953    -0.3873 C.ar    
   7 C7             1.2510    -2.1693    -0.2757 C.2     
   8 N8             0.0965    -2.8642    -0.2495 N.am    
   9 C9             0.1231    -4.3248    -0.1389 C.3     
  10 C10           -1.3095    -4.8618    -0.1310 C.3     
  11 O11            2.3143    -2.7544    -0.2075 O.2     
  12 C12           -2.6442    -6.8784    -0.0094 C.3     
  13 C13           -2.5846    -8.3864    -0.2697 C.3     
  14 C14           -3.2901    -6.6152     1.3541 C.3     
  15 C15           -2.5362    -7.4196     2.4250 C.3     
  16 C16           -1.0226    -7.1827     2.2171 C.3     
  17 C17           -0.5879    -8.2740     1.2165 C.3     
  18 C18           -1.8797    -9.0678     0.9139 C.3     
  19 N19           -2.7273    -8.8566     2.1123 N.am    
  20 C20           -3.4905    -9.7570     2.7628 C.2     
  21 O21           -4.2002    -9.3821     3.8438 O.3     
  22 O22           -3.5381   -10.9072     2.3738 O.2     
  23 C23           -4.9998   -10.4046     4.4945 C.3     
  24 C24           -5.7183    -9.8045     5.6755 C.2     
  25 N25           -1.2829    -6.3264    -0.0201 N.3     
  26 C26           -6.9853   -10.0704     5.8756 C.2     
  27 H27           -0.9555     1.8781    -0.6372 H       
  28 H28           -0.9222    -0.5738    -0.4461 H       
  29 H29            1.1544     3.1422    -0.6795 H       
  30 H30            3.3089     1.9631    -0.5398 H       
  31 H31            3.3647    -0.4889    -0.3543 H       
  32 H32           -0.7519    -2.3973    -0.3039 H       
  33 H33            0.6634    -4.7437    -0.9879 H       
  34 H34            0.6232    -4.6101     0.7866 H       
  35 H35           -1.8498    -4.4429     0.7179 H       
  36 H36           -1.8096    -4.5765    -1.0565 H       
  37 H37           -3.2355    -6.3987    -0.7894 H       
  38 H38           -3.5963    -8.7801    -0.3680 H       
  39 H39           -2.0261    -8.5769    -1.1861 H       
  40 H40           -3.2309    -5.5520     1.5870 H       
  41 H41           -4.3340    -6.9279     1.3300 H       
  42 H42           -2.8584    -7.1620     3.4339 H       
  43 H43           -0.8476    -6.1918     1.7979 H       
  44 H44           -0.4874    -7.2970     3.1597 H       
  45 H45           -0.1990    -7.8202     0.3049 H       
  46 H46            0.1612    -8.9253     1.6668 H       
  47 H47           -1.6795   -10.1217     0.7205 H       
  48 H48           -5.7295   -10.7997     3.7877 H       
  49 H49           -4.3507   -11.2111     4.8356 H       
  50 H50           -5.1886    -9.1553     6.3569 H       
  51 H51           -0.7328    -6.7351    -0.7606 H       
  52 H52           -7.5002    -9.6403     6.7220 H       
  53 H53           -7.5150   -10.7196     5.1942 H       
@<TRIPOS>BOND
   1    1    2 ar
   2    1    3 ar
   3    1   27 1
   4    2    6 ar
   5    2   28 1
   6    3    4 ar
   7    3   29 1
   8    4    5 ar
   9    4   30 1
  10    5    6 ar
  11    5   31 1
  12    6    7 1
  13    7    8 am
  14    7   11 2
  15    8    9 1
  16    8   32 1
  17    9   10 1
  18    9   33 1
  19    9   34 1
  20   10   25 1
  21   10   35 1
  22   10   36 1
  23   12   13 1
  24   12   14 1
  25   12   25 1
  26   12   37 1
  27   13   18 1
  28   13   38 1
  29   13   39 1
  30   14   15 1
  31   14   40 1
  32   14   41 1
  33   15   16 1
  34   15   19 1
  35   15   42 1
  36   16   17 1
  37   16   43 1
  38   16   44 1
  39   17   18 1
  40   17   45 1
  41   17   46 1
  42   18   19 1
  43   18   47 1
  44   19   20 am
  45   20   21 1
  46   20   22 2
  47   21   23 1
  48   23   24 1
  49   23   48 1
  50   23   49 1
  51   24   26 2
  52   24   50 1
  53   25   51 1
  54   26   52 1
  55   26   53 1

#	End of record

