#	Name: ASD02610047
#	Creating user name:	WinNT
#	Creation time:	15. 06. 2019 20:25

#	Modifying user name:	WinNT
#	Modification time:	15. 06. 2019 20:25

#	Program:	/corina/corina34_cracker 3.40 0067  02.08.2006

@<TRIPOS>MOLECULE
ASD02610047
  43   45    0    0    0
SMALL
NO_CHARGES


@<TRIPOS>ATOM
   1 O1            -0.0173     1.4248     0.0099 O.3     
   2 C2             0.0021    -0.0041     0.0020 C.3     
   3 C3            -1.4339    -0.5630     0.0127 C.3     
   4 C4             0.6043    -0.5305    -1.3234 C.3     
   5 O5             0.5220     0.4602    -2.3499 O.3     
   6 C6            -0.3169    -1.7355    -1.6426 C.3     
   7 O7            -1.6206    -1.2850    -1.2161 O.3     
   8 C8            -0.3140    -2.0287    -3.1208 C.2     
   9 C9            -1.6161    -1.5065     1.2033 C.3     
  10 C10            0.3540    -3.1041    -3.7445 C.ar    
  11 C11            0.0929    -3.0026    -5.1224 C.ar    
  12 N12           -0.7023    -1.9022    -5.2941 N.pl3   
  13 N13           -0.9329    -1.3343    -4.0340 N.2     
  14 N14            1.1207    -4.1113    -3.3062 N.ar    
  15 C15            1.6183    -4.9865    -4.1485 C.ar    
  16 N16            1.3970    -4.9263    -5.4508 N.ar    
  17 C17            0.6487    -3.9643    -5.9785 C.ar    
  18 O18           -2.9797    -1.9283     1.2726 O.3     
  19 P19           -3.5314    -2.9293     2.4064 P.3     
  20 O20           -2.6904    -4.2254     2.4026 O.co2   
  21 O21           -3.4241    -2.2499     3.7899 O.co2   
  22 O22           -5.0713    -3.2879     2.1026 O.3     
  23 P23           -6.0821    -4.4214     2.6370 P.3     
  24 O24           -7.3015    -4.5857     1.5987 O.3     
  25 O25           -5.3292    -5.7645     2.7639 O.co2   
  26 O26           -6.6348    -4.0083     4.0194 O.co2   
  27 P27           -8.4389    -5.7035     1.3772 P.3     
  28 O28           -9.3052    -5.8316     2.6762 O.co2   
  29 O29           -9.3554    -5.2853     0.1774 O.co2   
  30 O30           -7.7628    -7.0813     1.0624 O.co2   
  31 N31            0.4241    -3.9109    -7.3431 N.pl3   
  32 H32            0.8606     1.8301     0.0037 H       
  33 H33            0.5649    -0.3818     0.8557 H       
  34 H34           -2.1502     0.2564     0.0736 H       
  35 H35            1.6349    -0.8552    -1.1805 H       
  36 H36            1.0103     1.2715    -2.1536 H       
  37 H37           -0.0081    -2.6149    -1.0774 H       
  38 H38           -0.9724    -2.3773     1.0786 H       
  39 H39           -1.3494    -0.9863     2.1233 H       
  40 H40           -1.0483    -1.5749    -6.1391 H       
  41 H41            2.2325    -5.7867    -3.7629 H       
  42 H42            0.8149    -4.5809    -7.9255 H       
  43 H43           -0.1243    -3.2035    -7.7170 H       
@<TRIPOS>BOND
   1    1    2 1
   2    1   32 1
   3    2    3 1
   4    2    4 1
   5    2   33 1
   6    3    7 1
   7    3    9 1
   8    3   34 1
   9    4    5 1
  10    4    6 1
  11    4   35 1
  12    5   36 1
  13    6    8 1
  14    6    7 1
  15    6   37 1
  16    8   10 1
  17    8   13 2
  18    9   18 1
  19    9   38 1
  20    9   39 1
  21   10   11 ar
  22   10   14 ar
  23   11   12 1
  24   11   17 ar
  25   12   13 1
  26   12   40 1
  27   14   15 ar
  28   15   16 ar
  29   15   41 1
  30   16   17 ar
  31   17   31 1
  32   18   19 1
  33   19   20 ar
  34   19   21 ar
  35   19   22 1
  36   22   23 1
  37   23   24 1
  38   23   25 ar
  39   23   26 ar
  40   24   27 1
  41   27   28 ar
  42   27   29 ar
  43   27   30 ar
  44   31   42 1
  45   31   43 1

#	End of record

