#	Name: ASD02500228
#	Creating user name:	WinNT
#	Creation time:	15. 06. 2019 20:22

#	Modifying user name:	WinNT
#	Modification time:	15. 06. 2019 20:22

#	Program:	/corina/corina34_cracker 3.40 0067  02.08.2006

@<TRIPOS>MOLECULE
ASD02500228
  55   59    0    0    0
SMALL
NO_CHARGES


@<TRIPOS>ATOM
   1 N1            -0.9409     5.3906    -0.9502 N.ar    
   2 C2            -1.9557     6.2167    -1.0278 C.ar    
   3 C3            -2.9403     6.2632    -0.0430 C.ar    
   4 C4            -2.8623     5.4329     1.0386 C.ar    
   5 C5            -1.7713     4.5468     1.1184 C.ar    
   6 C6            -1.6238     3.6643     2.2002 C.ar    
   7 C7            -0.5541     2.8227     2.2410 C.ar    
   8 C8             0.3971     2.8257     1.2231 C.ar    
   9 C9             0.2852     3.6680     0.1598 C.ar    
  10 C10           -0.8051     4.5517     0.0818 C.ar    
  11 S11            1.5030     3.6515    -1.1135 S.o2    
  12 O12            1.8996     5.0022    -1.3070 O.2     
  13 O13            2.4153     2.6134    -0.7828 O.2     
  14 N14            0.7462     3.1817    -2.5095 N.am    
  15 C15            0.2403     1.8903    -2.6263 C.ar    
  16 C16            0.2969     1.2290    -3.8524 C.ar    
  17 C17           -0.2032    -0.0491    -3.9701 C.ar    
  18 C18           -0.7671    -0.6823    -2.8580 C.ar    
  19 C19           -0.8214    -0.0160    -1.6310 C.ar    
  20 C20           -0.3156     1.2597    -1.5180 C.ar    
  21 F21            0.8421     1.8422    -4.9257 F       
  22 C22           -1.3042    -2.0508    -2.9803 C.2     
  23 O23           -1.0896    -2.8684    -2.1062 O.2     
  24 N24           -2.0326    -2.3949    -4.0607 N.am    
  25 C25           -2.6576    -3.7220    -4.1498 C.3     
  26 C26           -4.1607    -3.5404    -4.3948 C.3     
  27 N27           -4.3447    -2.5950    -5.5049 N.am    
  28 C28           -3.7197    -1.2678    -5.4158 C.3     
  29 C29           -2.2213    -1.4474    -5.1683 C.3     
  30 C30           -5.0732    -2.9390    -6.5853 C.2     
  31 O31           -5.4802    -4.0785    -6.7065 O.2     
  32 S32           -6.0794    -0.6977    -9.6193 S.3     
  33 N33           -5.4181     0.1317    -8.4700 N.2     
  34 N34           -5.1072    -0.6384    -7.5037 N.2     
  35 C35           -5.3766    -1.9338    -7.6204 C.2     
  36 C36           -5.9750    -2.2232    -8.8296 C.2     
  37 H37           -2.0304     6.8791    -1.8775 H       
  38 H38           -3.7643     6.9554    -0.1347 H       
  39 H39           -3.6164     5.4559     1.8114 H       
  40 H40           -2.3542     3.6532     2.9957 H       
  41 H41           -0.4414     2.1441     3.0736 H       
  42 H42            1.2370     2.1491     1.2787 H       
  43 H43            0.6554     3.8066    -3.2459 H       
  44 H44           -0.1601    -0.5613    -4.9200 H       
  45 H45           -1.2568    -0.5027    -0.7707 H       
  46 H46           -0.3540     1.7729    -0.5685 H       
  47 H47           -2.2169    -4.2792    -4.9764 H       
  48 H48           -2.5019    -4.2631    -3.2164 H       
  49 H49           -4.6077    -4.5002    -4.6539 H       
  50 H50           -4.6329    -3.1450    -3.4955 H       
  51 H51           -3.8754    -0.7268    -6.3492 H       
  52 H52           -4.1604    -0.7106    -4.5892 H       
  53 H53           -1.7774    -0.4867    -4.9074 H       
  54 H54           -1.7488    -1.8389    -6.0691 H       
  55 H55           -6.3025    -3.1850    -9.1958 H       
@<TRIPOS>BOND
   1    1    2 ar
   2    1   10 ar
   3    2    3 ar
   4    2   37 1
   5    3    4 ar
   6    3   38 1
   7    4    5 ar
   8    4   39 1
   9    5    6 ar
  10    5   10 ar
  11    6    7 ar
  12    6   40 1
  13    7    8 ar
  14    7   41 1
  15    8    9 ar
  16    8   42 1
  17    9   10 ar
  18    9   11 1
  19   11   12 2
  20   11   13 2
  21   11   14 am
  22   14   15 1
  23   14   43 1
  24   15   16 ar
  25   15   20 ar
  26   16   17 ar
  27   16   21 1
  28   17   18 ar
  29   17   44 1
  30   18   19 ar
  31   18   22 1
  32   19   20 ar
  33   19   45 1
  34   20   46 1
  35   22   23 2
  36   22   24 am
  37   24   25 1
  38   24   29 1
  39   25   26 1
  40   25   47 1
  41   25   48 1
  42   26   27 1
  43   26   49 1
  44   26   50 1
  45   27   28 1
  46   27   30 am
  47   28   29 1
  48   28   51 1
  49   28   52 1
  50   29   53 1
  51   29   54 1
  52   30   31 2
  53   30   35 1
  54   32   33 1
  55   32   36 1
  56   33   34 2
  57   34   35 1
  58   35   36 2
  59   36   55 1

#	End of record

