#	Name: ASD05250001
#	Creating user name:	WinNT
#	Creation time:	15. 06. 2019 20:57

#	Modifying user name:	WinNT
#	Modification time:	15. 06. 2019 20:57

#	Program:	/corina/corina34_cracker 3.40 0067  02.08.2006

@<TRIPOS>MOLECULE
ASD05250001
  29   30    0    0    0
SMALL
NO_CHARGES


@<TRIPOS>ATOM
   1 C1            -0.0167     1.3835     0.0096 C.ar    
   2 C2             0.0021    -0.0041     0.0020 C.ar    
   3 C3             1.2105    -0.6861    -0.0132 C.ar    
   4 C4             2.4041     0.0156    -0.0204 C.ar    
   5 C5             2.3905     1.4124    -0.0128 C.ar    
   6 C6             1.1715     2.0943     0.0021 C.ar    
   7 O7            -1.2034     2.0458     0.0189 O.3     
   8 O8             1.2224    -2.0451    -0.0206 O.3     
   9 C9             3.6582     2.1642    -0.0200 C.2     
  10 C10            3.6426     3.5068    -0.0126 C.2     
  11 C11            4.9099     4.2584    -0.0197 C.ar    
  12 C12            4.8961     5.6561    -0.0121 C.ar    
  13 C13            6.0839     6.3546    -0.0183 C.ar    
  14 C14            7.2935     5.6720    -0.0327 C.ar    
  15 C15            7.3123     4.2831    -0.0403 C.ar    
  16 C16            6.1297     3.5759    -0.0283 C.ar    
  17 O17            8.4620     6.3650    -0.0397 O.3     
  18 H18           -0.9268    -0.5550     0.0083 H       
  19 H19            3.3441    -0.5161    -0.0316 H       
  20 H20            1.1558     3.1741     0.0077 H       
  21 H21           -1.5427     2.2327     0.9049 H       
  22 H22            1.2174    -2.4336    -0.9061 H       
  23 H23            4.5997     1.6352    -0.0311 H       
  24 H24            2.7011     4.0358    -0.0014 H       
  25 H25            3.9561     6.1877    -0.0017 H       
  26 H26            6.0743     7.4346    -0.0125 H       
  27 H27            8.2552     3.7567    -0.0518 H       
  28 H28            6.1453     2.4960    -0.0301 H       
  29 H29            8.8083     6.5611     0.8416 H       
@<TRIPOS>BOND
   1    1    2 ar
   2    1    6 ar
   3    1    7 1
   4    2    3 ar
   5    2   18 1
   6    3    4 ar
   7    3    8 1
   8    4    5 ar
   9    4   19 1
  10    5    6 ar
  11    5    9 1
  12    6   20 1
  13    7   21 1
  14    8   22 1
  15    9   10 2
  16    9   23 1
  17   10   11 1
  18   10   24 1
  19   11   12 ar
  20   11   16 ar
  21   12   13 ar
  22   12   25 1
  23   13   14 ar
  24   13   26 1
  25   14   15 ar
  26   14   17 1
  27   15   16 ar
  28   15   27 1
  29   16   28 1
  30   17   29 1

#	End of record

