#	Name: ASD07930429
#	Creating user name:	WinNT
#	Creation time:	15. 06. 2019 21:12

#	Modifying user name:	WinNT
#	Modification time:	15. 06. 2019 21:12

#	Program:	/corina/corina34_cracker 3.40 0067  02.08.2006

@<TRIPOS>MOLECULE
ASD07930429
  45   47    0    0    0
SMALL
NO_CHARGES


@<TRIPOS>ATOM
   1 N1             0.1963     0.8852     0.9124 N.2     
   2 N2            -1.0815    -1.0368     0.5457 N.pl3   
   3 C3            -1.2783    -1.9119    -0.6147 C.3     
   4 C4            -0.2386    -3.0405    -0.5795 C.3     
   5 S5             1.4185    -2.2889    -0.5204 S.o2    
   6 N6             1.2770    -1.1857     0.7203 N.am    
   7 C7             0.1305    -0.4040     0.7319 C.2     
   8 C8             2.3116    -1.0481     1.7483 C.3     
   9 C9            -1.1086    -1.1009    -1.9009 C.3     
  10 C10           -2.6640    -2.5026    -0.5703 C.ar    
  11 C11           -3.7055    -1.8023     0.0153 C.ar    
  12 C12           -4.9693    -2.3878     0.0327 C.ar    
  13 C13           -5.1375    -3.6443    -0.5342 C.ar    
  14 N14           -4.1185    -4.2768    -1.0812 N.ar    
  15 C15           -2.9114    -3.7475    -1.1188 C.ar    
  16 N16           -6.0529    -1.7202     0.6130 N.am    
  17 C17           -6.1417    -0.3781     0.5274 C.2     
  18 O18           -5.2390     0.2598     0.0215 O.2     
  19 C19           -7.3363     0.3179     1.0486 C.ar    
  20 C20           -8.3723    -0.4116     1.6354 C.ar    
  21 O21            2.3811    -3.2261    -0.0575 O.2     
  22 O22            1.6550    -1.4979    -1.6770 O.2     
  23 C23           -7.4313     1.7082     0.9614 C.ar    
  24 C24           -8.5486     2.3521     1.4495 C.ar    
  25 C25           -9.5756     1.6225     2.0254 C.ar    
  26 C26           -9.4847     0.2436     2.1200 C.ar    
  27 Cl27         -10.9792     2.4403     2.6377 Cl      
  28 H28            1.0570     1.3135     1.0415 H       
  29 H29           -1.8034    -0.8999     1.1789 H       
  30 H30           -0.3946    -3.6563     0.3062 H       
  31 H31           -0.3320    -3.6543    -1.4755 H       
  32 H32            3.0447    -0.3073     1.4291 H       
  33 H33            1.8538    -0.7267     2.6838 H       
  34 H34            2.8062    -2.0081     1.8968 H       
  35 H35           -0.1054    -0.6759    -1.9328 H       
  36 H36           -1.2550    -1.7518    -2.7629 H       
  37 H37           -1.8446    -0.2971    -1.9234 H       
  38 H38           -3.5418    -0.8264     0.4481 H       
  39 H39           -6.1128    -4.1081    -0.5265 H       
  40 H40           -2.1026    -4.2981    -1.5761 H       
  41 H41           -6.7404    -2.2232     1.0769 H       
  42 H42           -8.3026    -1.4868     1.7093 H       
  43 H43           -6.6310     2.2781     0.5129 H       
  44 H44           -8.6231     3.4275     1.3830 H       
  45 H45          -10.2887    -0.3199     2.5697 H       
@<TRIPOS>BOND
   1    1    7 2
   2    1   28 1
   3    2    3 1
   4    2    7 1
   5    2   29 1
   6    3    4 1
   7    3    9 1
   8    3   10 1
   9    4    5 1
  10    4   30 1
  11    4   31 1
  12    5    6 am
  13    5   21 2
  14    5   22 2
  15    6    7 1
  16    6    8 1
  17    8   32 1
  18    8   33 1
  19    8   34 1
  20    9   35 1
  21    9   36 1
  22    9   37 1
  23   10   11 ar
  24   10   15 ar
  25   11   12 ar
  26   11   38 1
  27   12   13 ar
  28   12   16 1
  29   13   14 ar
  30   13   39 1
  31   14   15 ar
  32   15   40 1
  33   16   17 am
  34   16   41 1
  35   17   18 2
  36   17   19 1
  37   19   23 ar
  38   19   20 ar
  39   20   26 ar
  40   20   42 1
  41   23   24 ar
  42   23   43 1
  43   24   25 ar
  44   24   44 1
  45   25   26 ar
  46   25   27 1
  47   26   45 1

#	End of record

