#	Name: ASD01912333
#	Creating user name:	WinNT
#	Creation time:	15. 06. 2019 19:59

#	Modifying user name:	WinNT
#	Modification time:	15. 06. 2019 19:59

#	Program:	/corina/corina34_cracker 3.40 0067  02.08.2006

@<TRIPOS>MOLECULE
ASD01912333
  51   53    0    0    0
SMALL
NO_CHARGES


@<TRIPOS>ATOM
   1 C1             0.1673     1.1021    -0.8319 C.ar    
   2 C2             0.0027    -0.0051     0.0146 C.ar    
   3 C3             1.0559    -0.3714     0.8646 C.ar    
   4 C4             2.2154     0.3758     0.8330 C.ar    
   5 C5             2.3058     1.4610    -0.0332 C.ar    
   6 N6             1.2975     1.7874    -0.8266 N.ar    
   7 C7            -1.2562    -0.7697     0.0104 C.2     
   8 O8            -2.3206    -0.1890     0.1055 O.2     
   9 N9            -1.2286    -2.1127    -0.0988 N.am    
  10 C10           -2.4672    -2.8930     0.0182 C.3     
  11 C11           -2.6547    -3.7167    -1.2622 C.3     
  12 C12           -1.3602    -4.4418    -1.5581 C.2     
  13 C13           -0.0826    -3.6343    -1.6257 C.3     
  14 C14            0.0395    -2.8122    -0.3422 C.3     
  15 C15           -1.3456    -5.7596    -1.7540 C.2     
  16 C16           -0.1105    -6.4284    -2.0330 C.1     
  17 C17            0.9021    -6.9767    -2.2617 C.1     
  18 C18            2.1372    -7.6455    -2.5407 C.ar    
  19 C19            2.1469    -9.0283    -2.7454 C.ar    
  20 C20            3.3480    -9.6586    -3.0137 C.ar    
  21 C21            4.5030    -8.8897    -3.0696 C.ar    
  22 C22            4.4225    -7.5255    -2.8572 C.ar    
  23 N23            3.2662    -6.9460    -2.6085 N.ar    
  24 C24            5.6748    -6.6892    -2.9174 C.3     
  25 O25            3.4439     2.1955    -0.0651 O.3     
  26 C26            3.4794     3.2977    -0.9739 C.3     
  27 O27           -0.8367     1.4676    -1.6638 O.3     
  28 C28           -0.6056     2.6034    -2.4997 C.3     
  29 H29            0.9616    -1.2180     1.5285 H       
  30 H30            3.0454     0.1207     1.4751 H       
  31 H31           -2.3980    -3.5619     0.8761 H       
  32 H32           -3.3136    -2.2182     0.1457 H       
  33 H33           -3.4565    -4.4410    -1.1185 H       
  34 H34           -2.9022    -3.0543    -2.0917 H       
  35 H35            0.7715    -4.3055    -1.7160 H       
  36 H36           -0.1165    -2.9651    -2.4854 H       
  37 H37            0.8432    -2.0841    -0.4520 H       
  38 H38            0.2570    -3.4762     0.4943 H       
  39 H39           -2.2654    -6.3234    -1.7024 H       
  40 H40            1.2296    -9.5962    -2.6944 H       
  41 H41            3.3870   -10.7256    -3.1760 H       
  42 H42            5.4563    -9.3532    -3.2768 H       
  43 H43            5.8295    -6.3397    -3.9381 H       
  44 H44            5.5718    -5.8324    -2.2516 H       
  45 H45            6.5287    -7.2908    -2.6059 H       
  46 H46            3.3367     2.9344    -1.9915 H       
  47 H47            2.6844     4.0003    -0.7240 H       
  48 H48            4.4443     3.7993    -0.8991 H       
  49 H49           -1.4866     2.7873    -3.1145 H       
  50 H50           -0.4071     3.4770    -1.8788 H       
  51 H51            0.2531     2.4123    -3.1432 H       
@<TRIPOS>BOND
   1    1    2 ar
   2    1    6 ar
   3    1   27 1
   4    2    3 ar
   5    2    7 1
   6    3    4 ar
   7    3   29 1
   8    4    5 ar
   9    4   30 1
  10    5    6 ar
  11    5   25 1
  12    7    8 2
  13    7    9 am
  14    9   10 1
  15    9   14 1
  16   10   11 1
  17   10   31 1
  18   10   32 1
  19   11   12 1
  20   11   33 1
  21   11   34 1
  22   12   13 1
  23   12   15 2
  24   13   14 1
  25   13   35 1
  26   13   36 1
  27   14   37 1
  28   14   38 1
  29   15   16 1
  30   15   39 1
  31   16   17 3
  32   17   18 1
  33   18   19 ar
  34   18   23 ar
  35   19   20 ar
  36   19   40 1
  37   20   21 ar
  38   20   41 1
  39   21   22 ar
  40   21   42 1
  41   22   23 ar
  42   22   24 1
  43   24   43 1
  44   24   44 1
  45   24   45 1
  46   25   26 1
  47   26   46 1
  48   26   47 1
  49   26   48 1
  50   27   28 1
  51   28   49 1
  52   28   50 1
  53   28   51 1

#	End of record

