#	Name: ASD01912872
#	Creating user name:	WinNT
#	Creation time:	15. 06. 2019 20:00

#	Modifying user name:	WinNT
#	Modification time:	15. 06. 2019 20:00

#	Program:	/corina/corina34_cracker 3.40 0067  02.08.2006

@<TRIPOS>MOLECULE
ASD01912872
  45   48    0    0    0
SMALL
NO_CHARGES


@<TRIPOS>ATOM
   1 C1            -0.0189     1.3593     0.1429 C.2     
   2 N2             0.0023    -0.0034    -0.0078 N.pl3   
   3 C3            -1.1996    -0.6835    -0.1368 C.2     
   4 C4            -2.3604    -0.0416    -0.1173 C.2     
   5 N5            -2.4358     1.3308     0.0320 N.am    
   6 C6            -1.3047     2.0583     0.1690 C.2     
   7 C7             1.2971     1.7695     0.2470 C.2     
   8 C8             2.0522     0.6017     0.1506 C.2     
   9 N9             1.2242    -0.4051     0.0018 N.2     
  10 O10           -1.3539     3.2678     0.3018 O.2     
  11 C11           -3.6793     1.9642     0.0464 C.ar    
  12 C12            3.5554     0.5117     0.2065 C.3     
  13 O13            4.1051     1.8198     0.3757 O.3     
  14 C14            5.4566     1.9158     0.4457 C.ar    
  15 N15            6.1962     0.8231     0.3569 N.ar    
  16 C16            7.5135     0.8716     0.4201 C.ar    
  17 C17            8.1703     2.0748     0.5828 C.ar    
  18 C18            7.4298     3.2451     0.6801 C.ar    
  19 C19            6.0506     3.1616     0.6041 C.ar    
  20 N20           -4.2963     2.1710     1.2002 N.ar    
  21 C21           -4.2551     2.3768    -1.1499 C.ar    
  22 C22           -5.4915     3.0060    -1.1250 C.ar    
  23 C23           -6.1105     3.2013     0.0986 C.ar    
  24 C24           -5.4764     2.7685     1.2576 C.ar    
  25 N25           -6.0911     2.9606     2.4909 N.pl3   
  26 C26           -7.4454     3.5153     2.5559 C.3     
  27 C27           -5.3840     2.6081     3.7246 C.3     
  28 F28           -3.6181     2.1679    -2.3228 F       
  29 H29           -1.1903    -1.7569    -0.2558 H       
  30 H30           -3.2739    -0.6081    -0.2216 H       
  31 H31            1.6619     2.7779     0.3751 H       
  32 H32            3.8507    -0.1179     1.0459 H       
  33 H33            3.9282     0.0782    -0.7215 H       
  34 H34            8.0849    -0.0417     0.3438 H       
  35 H35            9.2486     2.1054     0.6342 H       
  36 H36            7.9191     4.1993     0.8078 H       
  37 H37            5.4436     4.0520     0.6761 H       
  38 H38           -5.9608     3.3368    -2.0397 H       
  39 H39           -7.0731     3.6882     0.1521 H       
  40 H40           -8.1321     2.8613     2.0185 H       
  41 H41           -7.7571     3.5921     3.5976 H       
  42 H42           -7.4548     4.5054     2.1000 H       
  43 H43           -4.8175     3.4699     4.0776 H       
  44 H44           -6.1061     2.3116     4.4853 H       
  45 H45           -4.7021     1.7806     3.5287 H       
@<TRIPOS>BOND
   1    1    2 1
   2    1    7 2
   3    1    6 1
   4    2    3 1
   5    2    9 1
   6    3    4 2
   7    3   29 1
   8    4    5 1
   9    4   30 1
  10    5    6 am
  11    5   11 1
  12    6   10 2
  13    7    8 1
  14    7   31 1
  15    8    9 2
  16    8   12 1
  17   11   20 ar
  18   11   21 ar
  19   12   13 1
  20   12   32 1
  21   12   33 1
  22   13   14 1
  23   14   15 ar
  24   14   19 ar
  25   15   16 ar
  26   16   17 ar
  27   16   34 1
  28   17   18 ar
  29   17   35 1
  30   18   19 ar
  31   18   36 1
  32   19   37 1
  33   20   24 ar
  34   21   22 ar
  35   21   28 1
  36   22   23 ar
  37   22   38 1
  38   23   24 ar
  39   23   39 1
  40   24   25 1
  41   25   26 1
  42   25   27 1
  43   26   40 1
  44   26   41 1
  45   26   42 1
  46   27   43 1
  47   27   44 1
  48   27   45 1

#	End of record

