#	Name: ASD05380100
#	Creating user name:	WinNT
#	Creation time:	15. 06. 2019 20:59

#	Modifying user name:	WinNT
#	Modification time:	15. 06. 2019 20:59

#	Program:	/corina/corina34_cracker 3.40 0067  02.08.2006

@<TRIPOS>MOLECULE
ASD05380100
  46   50    0    0    0
SMALL
NO_CHARGES


@<TRIPOS>ATOM
   1 C1            -0.2259     1.5759    -0.3885 C.ar    
   2 C2            -0.0888     0.1881    -0.6182 C.ar    
   3 C3             0.7617     2.4578    -0.8296 C.ar    
   4 C4             1.8692     1.9621    -1.4899 C.ar    
   5 C5             2.0041     0.6000    -1.7155 C.ar    
   6 C6             1.0399    -0.2863    -1.2877 C.ar    
   7 N7            -1.0610    -0.6507    -0.1801 N.2     
   8 C8            -2.1108    -0.2088     0.4432 C.2     
   9 N9            -2.3244     1.1090     0.7063 N.am    
  10 C10           -1.4223     2.0428     0.3241 C.2     
  11 C11           -3.4854     1.5022     1.3838 C.ar    
  12 C12           -4.6399     1.7990     0.6716 C.ar    
  13 C13           -3.4861     1.5904     2.7697 C.ar    
  14 C14           -5.7790     2.2788     2.7224 C.ar    
  15 C15           -3.1454    -1.2058     0.8977 C.3     
  16 N16           -3.2480    -2.2861    -0.0865 N.pl3   
  17 C17           -4.4186    -3.0163    -0.1929 C.ar    
  18 N18           -5.4589    -2.7502     0.5901 N.ar    
  19 O19           -1.6004     3.2251     0.5533 O.2     
  20 C20           -4.5362    -4.0519    -1.1352 C.ar    
  21 C21           -5.7487    -4.7588    -1.1976 C.ar    
  22 N22           -6.7346    -4.4258    -0.3704 N.ar    
  23 C23           -6.5817    -3.4428     0.4954 C.ar    
  24 N24           -3.7147    -4.5846    -2.0723 N.2     
  25 C25           -4.3311    -5.5495    -2.6904 C.2     
  26 N26           -5.5898    -5.6961    -2.1866 N.pl3   
  27 C27           -5.7832     2.1864     1.3426 C.ar    
  28 C28           -4.6326     1.9784     3.4349 C.ar    
  29 C29           -2.7333    -1.7869     2.2518 C.3     
  30 F30            0.6355     3.7854    -0.6131 F       
  31 F31           -7.6096    -3.1318     1.3152 F       
  32 H32            2.6360     2.6405    -1.8335 H       
  33 H33            2.8762     0.2295    -2.2337 H       
  34 H34            1.1574    -1.3444    -1.4695 H       
  35 H35           -4.6437     1.7274    -0.4060 H       
  36 H36           -2.5912     1.3555     3.3267 H       
  37 H37           -6.6743     2.5820     3.2448 H       
  38 H38           -4.1109    -0.7092     0.9941 H       
  39 H39           -2.4953    -2.4896    -0.6635 H       
  40 H40           -3.9083    -6.1461    -3.4852 H       
  41 H41           -6.2514    -6.3445    -2.4745 H       
  42 H42           -6.6800     2.4221     0.7889 H       
  43 H43           -4.6338     2.0472     4.5127 H       
  44 H44           -3.5252    -2.4365     2.6245 H       
  45 H45           -1.8153    -2.3630     2.1357 H       
  46 H46           -2.5658    -0.9752     2.9597 H       
@<TRIPOS>BOND
   1    1    2 ar
   2    1    3 ar
   3    1   10 1
   4    2    7 1
   5    2    6 ar
   6    3    4 ar
   7    3   30 1
   8    4    5 ar
   9    4   32 1
  10    5    6 ar
  11    5   33 1
  12    6   34 1
  13    7    8 2
  14    8    9 1
  15    8   15 1
  16    9   10 am
  17    9   11 1
  18   10   19 2
  19   11   12 ar
  20   11   13 ar
  21   12   27 ar
  22   12   35 1
  23   13   28 ar
  24   13   36 1
  25   14   27 ar
  26   14   28 ar
  27   14   37 1
  28   15   16 1
  29   15   29 1
  30   15   38 1
  31   16   17 1
  32   16   39 1
  33   17   18 ar
  34   17   20 ar
  35   18   23 ar
  36   20   21 ar
  37   20   24 1
  38   21   22 ar
  39   21   26 1
  40   22   23 ar
  41   23   31 1
  42   24   25 2
  43   25   26 1
  44   25   40 1
  45   26   41 1
  46   27   42 1
  47   28   43 1
  48   29   44 1
  49   29   45 1
  50   29   46 1

#	End of record

