#	Name: ASD08170308
#	Creating user name:	WinNT
#	Creation time:	15. 06. 2019 21:17

#	Modifying user name:	WinNT
#	Modification time:	15. 06. 2019 21:17

#	Program:	/corina/corina34_cracker 3.40 0067  02.08.2006

@<TRIPOS>MOLECULE
ASD08170308
  63   68    0    0    0
SMALL
NO_CHARGES


@<TRIPOS>ATOM
   1 C1            -0.0162     1.3436     0.0094 C.2     
   2 N2             0.0021    -0.0041     0.0020 N.am    
   3 C3             1.2158    -0.6830    -0.0132 C.2     
   4 S4             1.4076    -2.3853    -0.0242 S.3     
   5 C5             3.1580    -2.1679    -0.0404 C.2     
   6 C6             4.1900    -3.2660    -0.0570 C.3     
   7 C7             7.1356    -6.3838     3.2786 C.3     
   8 C8             7.3823    -6.6392     4.7431 C.2     
   9 S9             8.5907    -5.8400     5.7495 S.3     
  10 C10            8.0678    -6.7751     7.0862 C.2     
  11 N11            2.3916    -0.1314    -0.0272 N.2     
  12 N12            3.3971    -0.8949    -0.0360 N.2     
  13 N13            6.7415    -7.4810     5.4904 N.2     
  14 N14            7.1020    -7.5523     6.6983 N.2     
  15 O15            1.0258     1.9642     0.0028 O.2     
  16 C16           -1.3314     2.0792     0.0197 C.3     
  17 C17            4.5536    -3.6458     1.3798 C.3     
  18 C18            6.0928    -5.2751     3.1228 C.3     
  19 N19            8.5909    -6.7128     8.3733 N.am    
  20 C20            8.0910    -7.5042     9.3429 C.2     
  21 O21            7.1849    -8.2707     9.0931 O.2     
  22 C22           -2.1451     1.7397     1.2909 C.3     
  23 C23            8.6578    -7.4367    10.7376 C.3     
  24 C24            8.4678    -6.0261    11.3441 C.3     
  25 O25            7.2207    -6.1480    12.0489 O.3     
  26 C26            7.0426    -7.4436    12.4268 C.ar    
  27 C27            7.8537    -8.2984    11.6918 C.ar    
  28 C28            6.2009    -7.9834    13.3965 C.ar    
  29 C29            6.1740    -9.3453    13.6129 C.ar    
  30 C30            6.9818   -10.1870    12.8703 C.ar    
  31 C31            7.8232    -9.6585    11.9076 C.ar    
  32 C32           -1.1161     3.5722     0.1755 C.ar    
  33 C33           -1.4023     3.8888     1.4971 C.ar    
  34 O34           -1.7590     2.7812     2.2037 O.3     
  35 C35           -0.7208     4.5473    -0.7134 C.ar    
  36 C36           -0.6109     5.8612    -0.2944 C.ar    
  37 C37           -0.8990     6.1898     1.0176 C.ar    
  38 C38           -1.2920     5.2144     1.9102 C.ar    
  39 S39            5.7958    -4.9677     1.3599 S.3     
  40 H40           -0.8313    -0.5005     0.0073 H       
  41 H41            3.7851    -4.1373    -0.5717 H       
  42 H42            5.0822    -2.9183    -0.5777 H       
  43 H43            8.0663    -6.0769     2.8014 H       
  44 H44            6.7692    -7.2959     2.8074 H       
  45 H45           -1.9054     1.8597    -0.8805 H       
  46 H46            4.9585    -2.7745     1.8946 H       
  47 H47            3.6614    -3.9935     1.9006 H       
  48 H48            5.1621    -5.5820     3.6000 H       
  49 H49            6.4592    -4.3630     3.5940 H       
  50 H50            9.3156    -6.0998     8.5731 H       
  51 H51           -3.2150     1.7818     1.0873 H       
  52 H52           -1.8632     0.7613     1.6800 H       
  53 H53            9.7090    -7.7248    10.7432 H       
  54 H54            9.2790    -5.7894    12.0326 H       
  55 H55            8.3953    -5.2745    10.5581 H       
  56 H56            5.5672    -7.3331    13.9813 H       
  57 H57            5.5189    -9.7566    14.3666 H       
  58 H58            6.9562   -11.2530    13.0414 H       
  59 H59            8.4557   -10.3121    11.3253 H       
  60 H60           -0.4964     4.2862    -1.7371 H       
  61 H61           -0.3008     6.6276    -0.9894 H       
  62 H62           -0.8154     7.2155     1.3452 H       
  63 H63           -1.5151     5.4796     2.9331 H       
@<TRIPOS>BOND
   1    1    2 am
   2    1   15 2
   3    1   16 1
   4    2    3 1
   5    2   40 1
   6    3    4 1
   7    3   11 2
   8    4    5 1
   9    5    6 1
  10    5   12 2
  11    6   17 1
  12    6   41 1
  13    6   42 1
  14    7    8 1
  15    7   18 1
  16    7   43 1
  17    7   44 1
  18    8    9 1
  19    8   13 2
  20    9   10 1
  21   10   19 1
  22   10   14 2
  23   11   12 1
  24   13   14 1
  25   16   22 1
  26   16   32 1
  27   16   45 1
  28   17   39 1
  29   17   46 1
  30   17   47 1
  31   18   39 1
  32   18   48 1
  33   18   49 1
  34   19   20 am
  35   19   50 1
  36   20   21 2
  37   20   23 1
  38   22   34 1
  39   22   51 1
  40   22   52 1
  41   23   24 1
  42   23   27 1
  43   23   53 1
  44   24   25 1
  45   24   54 1
  46   24   55 1
  47   25   26 1
  48   26   27 ar
  49   26   28 ar
  50   27   31 ar
  51   28   29 ar
  52   28   56 1
  53   29   30 ar
  54   29   57 1
  55   30   31 ar
  56   30   58 1
  57   31   59 1
  58   32   33 ar
  59   32   35 ar
  60   33   34 1
  61   33   38 ar
  62   35   36 ar
  63   35   60 1
  64   36   37 ar
  65   36   61 1
  66   37   38 ar
  67   37   62 1
  68   38   63 1

#	End of record

