#	Name: ASD04500014
#	Creating user name:	WinNT
#	Creation time:	15. 06. 2019 20:49

#	Modifying user name:	WinNT
#	Modification time:	15. 06. 2019 20:49

#	Program:	/corina/corina34_cracker 3.40 0067  02.08.2006

@<TRIPOS>MOLECULE
ASD04500014
  81   87    0    0    0
SMALL
NO_CHARGES


@<TRIPOS>ATOM
   1 C1             0.9791    -0.4956     1.2145 C.ar    
   2 C2             1.2607    -1.8318     1.2592 C.ar    
   3 C3             2.5680    -2.2829     1.3886 C.ar    
   4 C4             3.6128    -1.3887     1.4745 C.ar    
   5 C5             3.3485    -0.0210     1.4305 C.ar    
   6 C6             2.0175     0.4367     1.2993 C.ar    
   7 N7             1.7794     1.7627     1.2583 N.2     
   8 C8             4.4220     0.9796     1.5171 C.2     
   9 N9             4.0654     2.2843     1.4649 N.am    
  10 C10            2.7497     2.6379     1.3370 C.2     
  11 O11            5.5874     0.6474     1.6318 O.2     
  12 C12            2.4087     4.0734     1.2844 C.ar    
  13 C13            1.3504     5.9182     0.1685 C.ar    
  14 C14            1.6665     4.5782     0.2139 C.ar    
  15 C15            2.8225     4.9296     2.3079 C.ar    
  16 C16            2.5023     6.2683     2.2550 C.ar    
  17 C17            1.7688     6.7675     1.1856 C.ar    
  18 C18            5.0942     3.3241     1.5472 C.3     
  19 N19            8.3106     6.0066    -1.0799 N.pl3   
  20 N20            8.1611     7.1763    -0.5639 N.2     
  21 N21            9.2587     7.8417    -0.6473 N.2     
  22 C22           10.1818     7.0810    -1.2462 C.2     
  23 C23            9.5829     5.9004    -1.5281 C.2     
  24 C24           11.6079     7.4635    -1.5482 C.3     
  25 N25           11.6605     8.1863    -2.8213 N.am    
  26 C26           11.4137     9.5320    -2.8500 C.2     
  27 N27           11.4440    10.2402    -3.9504 N.2     
  28 C28           11.7246     9.6810    -5.1444 C.ar    
  29 C29           11.9930     8.2944    -5.2106 C.ar    
  30 C30           11.9584     7.5201    -3.9611 C.2     
  31 C31           11.7565    10.4407    -6.3172 C.ar    
  32 C32           12.0477     9.8315    -7.5167 C.ar    
  33 C33           12.3108     8.4693    -7.5775 C.ar    
  34 C34           12.2892     7.6993    -6.4349 C.ar    
  35 C35           11.0980    10.2168    -1.5806 C.ar    
  36 C36           11.9733    10.1202    -0.4961 C.ar    
  37 C37           11.6750    10.7606     0.6864 C.ar    
  38 C38           10.5055    11.5020     0.8015 C.ar    
  39 C39            9.6322    11.6007    -0.2749 C.ar    
  40 C40            9.9260    10.9680    -1.4627 C.ar    
  41 O41           12.1854     6.3242    -3.9527 O.2     
  42 C42            5.6508     3.6025     0.1495 C.3     
  43 C43            6.7252     4.6884     0.2354 C.3     
  44 C44            7.2819     4.9668    -1.1622 C.3     
  45 S45            0.1360     8.4360     1.8105 S.o2    
  46 O46            0.4595     7.9805     3.1171 O.2     
  47 O47           -0.7110     7.6252     1.0078 O.2     
  48 O48            0.1562     9.8353     1.5636 O.2     
  49 O49            1.4556     8.0876     1.1370 O.3     
  50 S50           10.7568    13.5509     2.0584 S.o2    
  51 O51           10.0684    14.0917     0.9391 O.2     
  52 O52           12.1359    13.2410     1.9123 O.2     
  53 O53           10.2728    13.8611     3.3579 O.2     
  54 O54           10.2149    12.1314     1.9688 O.3     
  55 H55           -0.0423    -0.1607     1.1095 H       
  56 H56            0.4549    -2.5478     1.1934 H       
  57 H57            2.7673    -3.3438     1.4226 H       
  58 H58            4.6275    -1.7445     1.5753 H       
  59 H59            0.7769     6.3092    -0.6589 H       
  60 H60            1.3412     3.9188    -0.5772 H       
  61 H61            3.3923     4.5423     3.1396 H       
  62 H62            2.8215     6.9308     3.0460 H       
  63 H63            4.6568     4.2365     1.9525 H       
  64 H64            5.9002     2.9869     2.1988 H       
  65 H65           10.0307     5.0453    -2.0127 H       
  66 H66           11.9891     8.1024    -0.7516 H       
  67 H67           12.2189     6.5634    -1.6159 H       
  68 H68           11.5533    11.5009    -6.2825 H       
  69 H69           12.0716    10.4201    -8.4219 H       
  70 H70           12.5368     8.0098    -8.5284 H       
  71 H71           12.5022     6.6418    -6.4879 H       
  72 H72           12.8823     9.5438    -0.5846 H       
  73 H73           12.3510    10.6861     1.5254 H       
  74 H74            8.7242    12.1779    -0.1815 H       
  75 H75            9.2469    11.0454    -2.2990 H       
  76 H76            6.0881     2.6900    -0.2558 H       
  77 H77            4.8447     3.9396    -0.5022 H       
  78 H78            6.2879     5.6009     0.6407 H       
  79 H79            7.5313     4.3513     0.8871 H       
  80 H80            6.4758     5.3040    -1.8139 H       
  81 H81            7.7192     4.0544    -1.5675 H       
@<TRIPOS>BOND
   1    1    2 ar
   2    1    6 ar
   3    1   55 1
   4    2    3 ar
   5    2   56 1
   6    3    4 ar
   7    3   57 1
   8    4    5 ar
   9    4   58 1
  10    5    6 ar
  11    5    8 1
  12    6    7 1
  13    7   10 2
  14    8    9 am
  15    8   11 2
  16    9   10 1
  17    9   18 1
  18   10   12 1
  19   12   15 ar
  20   12   14 ar
  21   13   14 ar
  22   13   17 ar
  23   13   59 1
  24   14   60 1
  25   15   16 ar
  26   15   61 1
  27   16   17 ar
  28   16   62 1
  29   17   49 1
  30   18   42 1
  31   18   63 1
  32   18   64 1
  33   19   20 1
  34   19   23 1
  35   19   44 1
  36   20   21 2
  37   21   22 1
  38   22   23 2
  39   22   24 1
  40   23   65 1
  41   24   25 1
  42   24   66 1
  43   24   67 1
  44   25   26 1
  45   25   30 am
  46   26   27 2
  47   26   35 1
  48   27   28 1
  49   28   31 ar
  50   28   29 ar
  51   29   30 1
  52   29   34 ar
  53   30   41 2
  54   31   32 ar
  55   31   68 1
  56   32   33 ar
  57   32   69 1
  58   33   34 ar
  59   33   70 1
  60   34   71 1
  61   35   36 ar
  62   35   40 ar
  63   36   37 ar
  64   36   72 1
  65   37   38 ar
  66   37   73 1
  67   38   39 ar
  68   38   54 1
  69   39   40 ar
  70   39   74 1
  71   40   75 1
  72   42   43 1
  73   42   76 1
  74   42   77 1
  75   43   44 1
  76   43   78 1
  77   43   79 1
  78   44   80 1
  79   44   81 1
  80   45   46 2
  81   45   47 2
  82   45   48 2
  83   45   49 1
  84   50   51 2
  85   50   52 2
  86   50   53 2
  87   50   54 1

#	End of record

