#	Name: ASD02038194
#	Creating user name:	WinNT
#	Creation time:	15. 06. 2019 20:16

#	Modifying user name:	WinNT
#	Modification time:	15. 06. 2019 20:16

#	Program:	/corina/corina34_cracker 3.40 0067  02.08.2006

@<TRIPOS>MOLECULE
ASD02038194
  45   46    0    0    0
SMALL
NO_CHARGES


@<TRIPOS>ATOM
   1 C1             1.0740     1.7577     0.0153 C.ar    
   2 C2             0.9295     0.3826     0.0279 C.ar    
   3 C3             2.3373     2.3209    -0.0478 C.ar    
   4 C4             3.4566     1.5091    -0.0988 C.ar    
   5 C5             3.3157     0.1350    -0.0863 C.ar    
   6 C6             2.0508    -0.4318    -0.0227 C.ar    
   7 Cl7           -0.3292     2.7783     0.0713 Cl      
   8 Cl8            2.5171     4.0475    -0.0636 Cl      
   9 O9             1.9110    -1.7837    -0.0100 O.3     
  10 C10            0.5792    -2.2975     0.0566 C.3     
  11 C11            0.6223    -3.8269     0.0613 C.3     
  12 N12            1.2792    -4.2932     1.2849 N.am    
  13 C13            1.4312    -5.6138     1.5069 C.2     
  14 O14            1.0241    -6.4162     0.6937 O.2     
  15 C15            2.1070    -6.0935     2.7656 C.3     
  16 O16            2.1472    -7.5219     2.7700 O.3     
  17 C17            2.7289    -8.1199     3.8440 C.ar    
  18 C18            2.8015    -9.5033     3.9121 C.ar    
  19 C19            3.2543    -7.3459     4.8681 C.ar    
  20 C20            3.8456    -7.9523     5.9590 C.ar    
  21 C21            3.9136    -9.3374     6.0306 C.ar    
  22 C22            3.3920   -10.1115     5.0025 C.ar    
  23 N23            4.5126    -9.9527     7.1356 N.am    
  24 S24            3.7134   -10.0113     8.5848 S.o2    
  25 O25            4.6007   -10.7112     9.4462 O.2     
  26 O26            3.3555    -8.6605     8.8425 O.2     
  27 C27            2.2358   -11.0079     8.2469 C.3     
  28 H28           -0.0558    -0.0568     0.0774 H       
  29 H29            4.4412     1.9501    -0.1486 H       
  30 H30            4.1898    -0.4980    -0.1265 H       
  31 H31            0.0989    -1.9448     0.9693 H       
  32 H32            0.0130    -1.9526    -0.8086 H       
  33 H33           -0.3940    -4.2191     0.0225 H       
  34 H34            1.1804    -4.1773    -0.8069 H       
  35 H35            1.6048    -3.6514     1.9353 H       
  36 H36            3.1232    -5.7013     2.8044 H       
  37 H37            1.5489    -5.7431     3.6338 H       
  38 H38            2.3958   -10.1052     3.1124 H       
  39 H39            3.2013    -6.2686     4.8122 H       
  40 H40            4.2552    -7.3494     6.7559 H       
  41 H41            3.4445   -11.1888     5.0574 H       
  42 H42            5.3959   -10.3449     7.0526 H       
  43 H43            2.5336   -11.9670     7.8229 H       
  44 H44            1.6900   -11.1750     9.1755 H       
  45 H45            1.5960   -10.4808     7.5392 H       
@<TRIPOS>BOND
   1    1    2 ar
   2    1    3 ar
   3    1    7 1
   4    2    6 ar
   5    2   28 1
   6    3    4 ar
   7    3    8 1
   8    4    5 ar
   9    4   29 1
  10    5    6 ar
  11    5   30 1
  12    6    9 1
  13    9   10 1
  14   10   11 1
  15   10   31 1
  16   10   32 1
  17   11   12 1
  18   11   33 1
  19   11   34 1
  20   12   13 am
  21   12   35 1
  22   13   14 2
  23   13   15 1
  24   15   16 1
  25   15   36 1
  26   15   37 1
  27   16   17 1
  28   17   18 ar
  29   17   19 ar
  30   18   22 ar
  31   18   38 1
  32   19   20 ar
  33   19   39 1
  34   20   21 ar
  35   20   40 1
  36   21   22 ar
  37   21   23 1
  38   22   41 1
  39   23   24 am
  40   23   42 1
  41   24   25 2
  42   24   26 2
  43   24   27 1
  44   27   43 1
  45   27   44 1
  46   27   45 1

#	End of record

