#	Name: ASD01410261
#	Creating user name:	WinNT
#	Creation time:	15. 06. 2019 19:17

#	Modifying user name:	WinNT
#	Modification time:	15. 06. 2019 19:17

#	Program:	/corina/corina34_cracker 3.40 0067  02.08.2006

@<TRIPOS>MOLECULE
ASD01410261
  28   29    0    0    0
SMALL
NO_CHARGES


@<TRIPOS>ATOM
   1 C1            -0.0169     1.3742    -0.0121 C.ar    
   2 C2             0.0006    -0.0061    -0.0506 C.ar    
   3 C3            -1.1859    -0.7224    -0.0533 C.ar    
   4 C4            -2.3960    -0.0633    -0.0179 C.ar    
   5 C5            -2.4279     1.3331     0.0213 C.ar    
   6 C6            -1.2261     2.0535     0.0297 C.ar    
   7 O7            -1.2448     3.4096     0.0676 O.3     
   8 I8             1.7846     2.4437    -0.0078 I       
   9 C9            -3.7195     2.0447     0.0594 C.2     
  10 N10           -4.8732     1.3478     0.0564 N.am    
  11 O11           -3.7434     3.2600     0.0935 O.2     
  12 C12           -6.2061     3.3430    -0.2198 C.ar    
  13 C13           -6.0971     2.0187     0.1775 C.ar    
  14 C14           -7.2080     1.3569     0.6969 C.ar    
  15 C15           -8.4157     2.0245     0.8141 C.ar    
  16 C16           -8.5175     3.3458     0.4153 C.ar    
  17 C17           -7.4149     4.0031    -0.1004 C.ar    
  18 I18           -1.1401    -2.8160    -0.1121 I       
  19 Cl19         -10.0326     4.1805     0.5626 Cl      
  20 O20           -7.1065     0.0584     1.0875 O.3     
  21 H21            0.9444    -0.5305    -0.0792 H       
  22 H22           -3.3182    -0.6254    -0.0208 H       
  23 H23           -1.2416     3.7781     0.9616 H       
  24 H24           -4.8560     0.3818    -0.0296 H       
  25 H25           -5.3457     3.8598    -0.6186 H       
  26 H26           -9.2782     1.5139     1.2164 H       
  27 H27           -7.4986     5.0342    -0.4104 H       
  28 H28           -6.8530    -0.0551     2.0137 H       
@<TRIPOS>BOND
   1    1    2 ar
   2    1    8 1
   3    1    6 ar
   4    2    3 ar
   5    2   21 1
   6    3    4 ar
   7    3   18 1
   8    4    5 ar
   9    4   22 1
  10    5    6 ar
  11    5    9 1
  12    6    7 1
  13    7   23 1
  14    9   10 am
  15    9   11 2
  16   10   13 1
  17   10   24 1
  18   12   13 ar
  19   12   17 ar
  20   12   25 1
  21   13   14 ar
  22   14   15 ar
  23   14   20 1
  24   15   16 ar
  25   15   26 1
  26   16   17 ar
  27   16   19 1
  28   17   27 1
  29   20   28 1

#	End of record

