#	Name: ASD03091907
#	Creating user name:	WinNT
#	Creation time:	15. 06. 2019 20:31

#	Modifying user name:	WinNT
#	Modification time:	15. 06. 2019 20:31

#	Program:	/corina/corina34_cracker 3.40 0067  02.08.2006

@<TRIPOS>MOLECULE
ASD03091907
  53   57    0    0    0
SMALL
NO_CHARGES


@<TRIPOS>ATOM
   1 C1            -0.0168     1.3911     0.0097 C.ar    
   2 C2            -1.2517     2.0643     0.0309 C.ar    
   3 C3            -2.4517     1.3090     0.0450 C.ar    
   4 C4            -2.3943    -0.0988     0.0356 C.ar    
   5 C5            -1.1956    -0.7356     0.0149 C.ar    
   6 C6             0.0021    -0.0041     0.0020 C.ar    
   7 O7             1.1580     2.0616     0.0021 O.3     
   8 C8             2.2593     1.4603     0.6833 C.3     
   9 N9             2.4079     0.0581     0.2908 N.am    
  10 C10            1.3149    -0.6791    -0.0138 C.2     
  11 C11           -3.6697    -0.9014     0.0492 C.3     
  12 C12           -4.1812    -1.0556    -1.3599 C.ar    
  13 C13           -5.0448    -0.1198    -1.8967 C.ar    
  14 C14           -3.7865    -2.1351    -2.1356 C.ar    
  15 C15           -4.2815    -2.2364    -3.4263 C.ar    
  16 C16           -5.1470    -1.2638    -3.8945 C.ar    
  17 N17           -5.4970    -0.2473    -3.1289 N.ar    
  18 O18            1.4109    -1.8592    -0.2917 O.2     
  19 C19            3.7405    -0.5472     0.2270 C.3     
  20 C20            4.0100    -1.0382    -1.1967 C.3     
  21 O21            3.9446     0.0658    -2.1017 O.3     
  22 Cl22          -5.7741    -1.3781    -5.5092 Cl      
  23 C23            3.8106    -1.7292     1.1960 C.3     
  24 C24            5.2022    -2.3614     1.1294 C.3     
  25 C25            5.4718    -2.8524    -0.2944 C.3     
  26 C26            5.4017    -1.6704    -1.2633 C.3     
  27 C27           -3.6842     1.9809     0.0688 C.ar    
  28 C28           -1.3193     3.4662     0.0388 C.ar    
  29 C29           -2.5334     4.0837     0.0618 C.ar    
  30 C30           -3.7121     3.3428     0.0765 C.ar    
  31 H31           -1.1633    -1.8151     0.0081 H       
  32 H32            3.1729     2.0010     0.4361 H       
  33 H33            2.0899     1.5160     1.7586 H       
  34 H34           -3.4749    -1.8858     0.4748 H       
  35 H35           -4.4169    -0.3861     0.6527 H       
  36 H36           -5.3534     0.7258    -1.2999 H       
  37 H37           -3.1090    -2.8792    -1.7435 H       
  38 H38           -3.9950    -3.0638    -4.0586 H       
  39 H39            4.4900     0.1943     0.5037 H       
  40 H40            3.2605    -1.7797    -1.4734 H       
  41 H41            4.1059    -0.1723    -3.0249 H       
  42 H42            3.6185    -1.3794     2.2103 H       
  43 H43            3.0611    -2.4707     0.9193 H       
  44 H44            5.9517    -1.6199     1.4061 H       
  45 H45            5.2522    -3.2035     1.8197 H       
  46 H46            6.4633    -3.3028    -0.3418 H       
  47 H47            4.7223    -3.5939    -0.5710 H       
  48 H48            5.5938    -2.0202    -2.2776 H       
  49 H49            6.1512    -0.9289    -0.9867 H       
  50 H50           -4.6071     1.4200     0.0805 H       
  51 H51           -0.4127     4.0529     0.0272 H       
  52 H52           -2.5822     5.1626     0.0682 H       
  53 H53           -4.6626     3.8554     0.0951 H       
@<TRIPOS>BOND
   1    1    6 ar
   2    1    7 1
   3    1    2 ar
   4    2    3 ar
   5    2   28 ar
   6    3    4 ar
   7    3   27 ar
   8    4    5 ar
   9    4   11 1
  10    5    6 ar
  11    5   31 1
  12    6   10 1
  13    7    8 1
  14    8    9 1
  15    8   32 1
  16    8   33 1
  17    9   10 am
  18    9   19 1
  19   10   18 2
  20   11   12 1
  21   11   34 1
  22   11   35 1
  23   12   14 ar
  24   12   13 ar
  25   13   17 ar
  26   13   36 1
  27   14   15 ar
  28   14   37 1
  29   15   16 ar
  30   15   38 1
  31   16   22 1
  32   16   17 ar
  33   19   23 1
  34   19   20 1
  35   19   39 1
  36   20   21 1
  37   20   26 1
  38   20   40 1
  39   21   41 1
  40   23   24 1
  41   23   42 1
  42   23   43 1
  43   24   25 1
  44   24   44 1
  45   24   45 1
  46   25   26 1
  47   25   46 1
  48   25   47 1
  49   26   48 1
  50   26   49 1
  51   27   30 ar
  52   27   50 1
  53   28   29 ar
  54   28   51 1
  55   29   30 ar
  56   29   52 1
  57   30   53 1

#	End of record

