#	Name: ASD08150970
#	Creating user name:	WinNT
#	Creation time:	15. 06. 2019 21:16

#	Modifying user name:	WinNT
#	Modification time:	15. 06. 2019 21:16

#	Program:	/corina/corina34_cracker 3.40 0067  02.08.2006

@<TRIPOS>MOLECULE
ASD08150970
  61   66    0    0    0
SMALL
NO_CHARGES


@<TRIPOS>ATOM
   1 N1            -1.0581     2.0563     0.1117 N.2     
   2 C2            -1.1393     0.7679    -0.0528 C.2     
   3 N3             0.0863     0.2603    -0.3667 N.pl3   
   4 C4             0.9708     1.3087    -0.3950 C.ar    
   5 N5             2.2718     1.4327    -0.6358 N.ar    
   6 C6             2.8538     2.6125    -0.5862 C.ar    
   7 N7             2.1914     3.7182    -0.2996 N.ar    
   8 C8             0.8873     3.6927    -0.0444 C.ar    
   9 C9             0.2211     2.4563    -0.0857 C.ar    
  10 N10            0.2016     4.8568     0.2555 N.pl3   
  11 C11            0.9133     6.1368     0.2944 C.3     
  12 C12            1.0774     6.6726    -1.1293 C.3     
  13 N13            0.6497    10.0710     3.1801 N.ar    
  14 C14           -0.0313    10.9331     3.8954 C.ar    
  15 C15           -1.4165    10.8494     4.0197 C.ar    
  16 C16           -2.0984     9.8496     3.3867 C.ar    
  17 C17           -1.3630     8.9261     2.6197 C.ar    
  18 C18           -1.9973     7.8722     1.9407 C.ar    
  19 C19           -1.2572     6.9948     1.2058 C.ar    
  20 C20            0.1253     7.1249     1.1153 C.ar    
  21 C21            0.7830     8.1453     1.7670 C.ar    
  22 C22            0.0435     9.0701     2.5361 C.ar    
  23 N23            2.1697     8.2636     1.6680 N.3     
  24 C24            2.8083     8.0841     2.9787 C.3     
  25 C25            4.3297     8.0402     2.8002 C.3     
  26 N26            4.7486     9.2424     2.0637 N.am    
  27 C27            4.0572     9.5642     0.8060 C.3     
  28 C28            2.5466     9.5481     1.0630 C.3     
  29 C29            5.7393    10.0287     2.5292 C.2     
  30 O30            6.3527     9.7063     3.5279 O.2     
  31 C31            6.2069    11.3051     0.4355 C.ar    
  32 C32            6.0801    11.2832     1.8252 C.ar    
  33 C33            6.2807    12.4693     2.5412 C.ar    
  34 C34            6.5973    13.6164     1.8346 C.ar    
  35 C35            6.7045    13.5550     0.4570 C.ar    
  36 N36            6.5099    12.4225    -0.1916 N.ar    
  37 Cl37          -3.7207     7.6877     2.0380 Cl      
  38 H38           -2.0441     0.1865     0.0453 H       
  39 H39            0.2949    -0.6714    -0.5383 H       
  40 H40            3.9130     2.6784    -0.7871 H       
  41 H41           -0.7502     4.8253     0.4399 H       
  42 H42            1.8958     5.9927     0.7439 H       
  43 H43            0.1008     6.7329    -1.6096 H       
  44 H44            1.5271     7.6649    -1.0944 H       
  45 H45            1.7212     6.0016    -1.6980 H       
  46 H46            0.4951    11.7286     4.4017 H       
  47 H47           -1.9504    11.5742     4.6164 H       
  48 H48           -3.1720     9.7694     3.4725 H       
  49 H49           -1.7509     6.1869     0.6863 H       
  50 H50            2.5424     8.9167     3.6299 H       
  51 H51            2.4673     7.1497     3.4245 H       
  52 H52            4.8126     8.0225     3.7772 H       
  53 H53            4.6066     7.1499     2.2356 H       
  54 H54            4.3600    10.5541     0.4646 H       
  55 H55            4.3080     8.8204     0.0497 H       
  56 H56            2.0158     9.6755     0.1196 H       
  57 H57            2.2843    10.3603     1.7409 H       
  58 H58            6.0594    10.3969    -0.1299 H       
  59 H59            6.1903    12.4887     3.6172 H       
  60 H60            6.7587    14.5498     2.3534 H       
  61 H61            6.9515    14.4487    -0.0968 H       
@<TRIPOS>BOND
   1    1    2 2
   2    1    9 1
   3    2    3 1
   4    2   38 1
   5    3    4 1
   6    3   39 1
   7    4    5 ar
   8    4    9 ar
   9    5    6 ar
  10    6    7 ar
  11    6   40 1
  12    7    8 ar
  13    8    9 ar
  14    8   10 1
  15   10   11 1
  16   10   41 1
  17   11   12 1
  18   11   20 1
  19   11   42 1
  20   12   43 1
  21   12   44 1
  22   12   45 1
  23   13   14 ar
  24   13   22 ar
  25   14   15 ar
  26   14   46 1
  27   15   16 ar
  28   15   47 1
  29   16   17 ar
  30   16   48 1
  31   17   18 ar
  32   17   22 ar
  33   18   19 ar
  34   18   37 1
  35   19   20 ar
  36   19   49 1
  37   20   21 ar
  38   21   22 ar
  39   21   23 1
  40   23   24 1
  41   23   28 1
  42   24   25 1
  43   24   50 1
  44   24   51 1
  45   25   26 1
  46   25   52 1
  47   25   53 1
  48   26   27 1
  49   26   29 am
  50   27   28 1
  51   27   54 1
  52   27   55 1
  53   28   56 1
  54   28   57 1
  55   29   30 2
  56   29   32 1
  57   31   32 ar
  58   31   36 ar
  59   31   58 1
  60   32   33 ar
  61   33   34 ar
  62   33   59 1
  63   34   35 ar
  64   34   60 1
  65   35   36 ar
  66   35   61 1

#	End of record

