#	Name: ASD01814651
#	Creating user name:	WinNT
#	Creation time:	15. 06. 2019 19:32

#	Modifying user name:	WinNT
#	Modification time:	15. 06. 2019 19:32

#	Program:	/corina/corina34_cracker 3.40 0067  02.08.2006

@<TRIPOS>MOLECULE
ASD01814651
  47   51    0    0    0
SMALL
NO_CHARGES


@<TRIPOS>ATOM
   1 C1            -0.0169     1.3972     0.0097 C.2     
   2 C2             0.0021    -0.0041     0.0020 C.2     
   3 C3             1.1986    -0.6593    -0.0129 C.2     
   4 C4             2.3918     0.0821    -0.0204 C.2     
   5 N5             2.3437     1.4497    -0.0122 N.am    
   6 C6             1.1421     2.0937     0.0024 C.2     
   7 C7             3.6227    -0.5889    -0.0356 C.2     
   8 C8             4.7877     0.1218    -0.0425 C.2     
   9 C9             4.7345     1.5280    -0.0346 C.2     
  10 C10            3.4812     2.1736    -0.0189 C.2     
  11 O11            3.4258     3.3917    -0.0123 O.2     
  12 C12            5.9703     2.3140    -0.0413 C.2     
  13 O13            5.9124     3.6618    -0.0337 O.3     
  14 O14            7.0487     1.7516    -0.0537 O.2     
  15 C15            3.6593    -2.0954    -0.0439 C.3     
  16 N16            3.7787    -2.5747    -1.4274 N.3     
  17 C17            5.0748    -2.1897    -2.0089 C.3     
  18 C18            5.1799    -2.7957    -3.3884 C.2     
  19 C19            4.3839    -3.8034    -3.8131 C.2     
  20 C20            3.3108    -4.4318    -2.9600 C.3     
  21 C21            3.5671    -4.0271    -1.5017 C.3     
  22 N22            6.0514    -2.4445    -4.3831 N.pl3   
  23 C23            5.8352    -3.2244    -5.4834 C.ar    
  24 C24            4.7739    -4.1133    -5.1703 C.ar    
  25 C25            6.4470    -3.2637    -6.7345 C.ar    
  26 C26            5.9705    -4.1990    -7.6367 C.ar    
  27 C27            4.9339    -5.0639    -7.3264 C.ar    
  28 C28            4.3125    -5.0483    -6.1023 C.ar    
  29 H29           -0.9605     1.9226     0.0170 H       
  30 H30           -0.9233    -0.5609     0.0082 H       
  31 H31            1.2282    -1.7389    -0.0187 H       
  32 H32            1.1156     3.1733     0.0087 H       
  33 H33            5.7393    -0.3889    -0.0536 H       
  34 H34            6.7544     4.1373    -0.0385 H       
  35 H35            4.5153    -2.4412     0.5356 H       
  36 H36            2.7412    -2.4836     0.3971 H       
  37 H37            5.1361    -1.1038    -2.0803 H       
  38 H38            5.8835    -2.5647    -1.3816 H       
  39 H39            2.3315    -4.0723    -3.2756 H       
  40 H40            3.3537    -5.5169    -3.0540 H       
  41 H41            4.4531    -4.5430    -1.1317 H       
  42 H42            2.7060    -4.3005    -0.8920 H       
  43 H43            6.7217    -1.7465    -4.3169 H       
  44 H44            7.2562    -2.5952    -6.9886 H       
  45 H45            6.4221    -4.2562    -8.6160 H       
  46 H46            4.6036    -5.7727    -8.0713 H       
  47 H47            3.5049    -5.7266    -5.8698 H       
@<TRIPOS>BOND
   1    1    2 1
   2    1    6 2
   3    1   29 1
   4    2    3 2
   5    2   30 1
   6    3    4 1
   7    3   31 1
   8    4    5 1
   9    4    7 2
  10    5    6 1
  11    5   10 am
  12    6   32 1
  13    7    8 1
  14    7   15 1
  15    8    9 2
  16    8   33 1
  17    9   10 1
  18    9   12 1
  19   10   11 2
  20   12   13 1
  21   12   14 2
  22   13   34 1
  23   15   16 1
  24   15   35 1
  25   15   36 1
  26   16   17 1
  27   16   21 1
  28   17   18 1
  29   17   37 1
  30   17   38 1
  31   18   19 2
  32   18   22 1
  33   19   20 1
  34   19   24 1
  35   20   21 1
  36   20   39 1
  37   20   40 1
  38   21   41 1
  39   21   42 1
  40   22   23 1
  41   22   43 1
  42   23   24 ar
  43   23   25 ar
  44   24   28 ar
  45   25   26 ar
  46   25   44 1
  47   26   27 ar
  48   26   45 1
  49   27   28 ar
  50   27   46 1
  51   28   47 1

#	End of record

