#	Name: ASD05490331
#	Creating user name:	WinNT
#	Creation time:	15. 06. 2019 21:01

#	Modifying user name:	WinNT
#	Modification time:	15. 06. 2019 21:01

#	Program:	/corina/corina34_cracker 3.40 0067  02.08.2006

@<TRIPOS>MOLECULE
ASD05490331
  64   68    0    0    0
SMALL
NO_CHARGES


@<TRIPOS>ATOM
   1 N1            -0.0159     1.3207     0.0093 N.ar    
   2 C2             0.0021    -0.0041     0.0020 C.ar    
   3 N3             1.1289    -0.6945    -0.0125 N.ar    
   4 C4             2.3034    -0.0725    -0.0203 C.ar    
   5 C5             2.3339     1.3310    -0.0131 C.ar    
   6 C6             1.1124     2.0230     0.0023 C.ar    
   7 N7             1.0838     3.4078     0.0096 N.pl3   
   8 O8            -1.1759    -0.6744     0.0101 O.3     
   9 N9             3.6157    -0.4830    -0.0355 N.pl3   
  10 C10            4.3961     0.6392    -0.0372 C.2     
  11 N11            3.6396     1.7050    -0.0240 N.2     
  12 C12            4.0903    -1.8690    -0.0472 C.3     
  13 C13            4.2389    -2.3371    -1.4719 C.ar    
  14 C14            5.4414    -2.1624    -2.1328 C.ar    
  15 C15            3.1739    -2.9448    -2.1121 C.ar    
  16 C16            3.3045    -3.3754    -3.4169 C.ar    
  17 C17            4.5118    -3.1969    -4.0893 C.ar    
  18 C18            5.5830    -2.5892    -3.4376 C.ar    
  19 C19           -2.3694     0.1114     0.0262 C.3     
  20 C20           -3.5885    -0.8130     0.0334 C.3     
  21 O21           -3.6120    -1.5611     1.2507 O.3     
  22 C22           -4.7173    -2.4603     1.3591 C.3     
  23 C23            4.6580    -3.6579    -5.4922 C.ar    
  24 C24            3.5961    -4.2719    -6.1526 C.ar    
  25 N25            3.7298    -4.6811    -7.3950 N.ar    
  26 C26            4.8592    -4.5352    -8.0724 C.ar    
  27 C27            5.9530    -3.9321    -7.4869 C.ar    
  28 C28            5.8607    -3.4796    -6.1784 C.ar    
  29 C29            6.0999    -4.4325   -10.2260 C.3     
  30 N30            7.3064    -4.6094    -9.4024 N.3     
  31 C31            8.5217    -4.3560   -10.1878 C.3     
  32 C32            4.9119    -5.0509    -9.4891 C.3     
  33 C33            7.2495    -3.7359    -8.2258 C.3     
  34 O34            5.7497     0.6458    -0.0505 O.3     
  35 C35            6.3923     1.9221    -0.0500 C.3     
  36 H36            1.9136     3.9100     0.0040 H       
  37 H37            0.2340     3.8753     0.0202 H       
  38 H38            5.0551    -1.9269     0.4567 H       
  39 H39            3.3712    -2.5037     0.4707 H       
  40 H40            6.2709    -1.6910    -1.6268 H       
  41 H41            2.2387    -3.0830    -1.5899 H       
  42 H42            2.4725    -3.8501    -3.9158 H       
  43 H43            6.5210    -2.4485    -3.9541 H       
  44 H44           -2.3814     0.7356     0.9197 H       
  45 H45           -2.3991     0.7451    -0.8601 H       
  46 H46           -4.4974    -0.2163    -0.0440 H       
  47 H47           -3.5303    -1.4977    -0.8128 H       
  48 H48           -5.6496    -1.8977     1.3093 H       
  49 H49           -4.6825    -3.1791     0.5405 H       
  50 H50           -4.6629    -2.9899     2.3103 H       
  51 H51            2.6561    -4.4132    -5.6401 H       
  52 H52            6.7046    -3.0072    -5.6978 H       
  53 H53            5.9184    -3.3696   -10.3857 H       
  54 H54            6.2353    -4.9315   -11.1855 H       
  55 H55            8.5034    -3.3338   -10.5659 H       
  56 H56            9.3985    -4.4937    -9.5551 H       
  57 H57            8.5649    -5.0524   -11.0253 H       
  58 H58            5.0194    -6.1355    -9.4755 H       
  59 H59            3.9888    -4.7867   -10.0050 H       
  60 H60            7.3289    -2.6965    -8.5444 H       
  61 H61            8.0816    -3.9708    -7.5620 H       
  62 H62            7.4735     1.7846    -0.0614 H       
  63 H63            6.0879     2.4825    -0.9340 H       
  64 H64            6.1055     2.4729     0.8459 H       
@<TRIPOS>BOND
   1    1    2 ar
   2    1    6 ar
   3    2    3 ar
   4    2    8 1
   5    3    4 ar
   6    4    5 ar
   7    4    9 1
   8    5    6 ar
   9    5   11 1
  10    6    7 1
  11    7   36 1
  12    7   37 1
  13    8   19 1
  14    9   10 1
  15    9   12 1
  16   10   11 2
  17   10   34 1
  18   12   13 1
  19   12   38 1
  20   12   39 1
  21   13   14 ar
  22   13   15 ar
  23   14   18 ar
  24   14   40 1
  25   15   16 ar
  26   15   41 1
  27   16   17 ar
  28   16   42 1
  29   17   18 ar
  30   17   23 1
  31   18   43 1
  32   19   20 1
  33   19   44 1
  34   19   45 1
  35   20   21 1
  36   20   46 1
  37   20   47 1
  38   21   22 1
  39   22   48 1
  40   22   49 1
  41   22   50 1
  42   23   24 ar
  43   23   28 ar
  44   24   25 ar
  45   24   51 1
  46   25   26 ar
  47   26   27 ar
  48   26   32 1
  49   27   28 ar
  50   27   33 1
  51   28   52 1
  52   29   30 1
  53   29   32 1
  54   29   53 1
  55   29   54 1
  56   30   33 1
  57   30   31 1
  58   31   55 1
  59   31   56 1
  60   31   57 1
  61   32   58 1
  62   32   59 1
  63   33   60 1
  64   33   61 1
  65   34   35 1
  66   35   62 1
  67   35   63 1
  68   35   64 1

#	End of record

