#	Name: ASD03430223
#	Creating user name:	WinNT
#	Creation time:	15. 06. 2019 20:40

#	Modifying user name:	WinNT
#	Modification time:	15. 06. 2019 20:40

#	Program:	/corina/corina34_cracker 3.40 0067  02.08.2006

@<TRIPOS>MOLECULE
ASD03430223
  72   77    0    0    0
SMALL
NO_CHARGES


@<TRIPOS>ATOM
   1 C1             0.0148     1.3712    -0.0403 C.ar    
   2 C2             0.0253    -0.0061    -0.0352 C.ar    
   3 C3             1.2234    -0.6892    -0.0377 C.ar    
   4 C4             2.4298     0.0063    -0.0368 C.ar    
   5 C5             2.4104     1.3959    -0.0526 C.ar    
   6 C6             1.2055     2.0882    -0.0576 C.ar    
   7 O7             3.4908    -0.8492    -0.0061 O.3     
   8 C8             1.5705    -2.1531    -0.0544 C.3     
   9 C9             3.0599    -2.1573    -0.4270 C.3     
  10 C10            0.4399    -3.8600     1.0083 C.ar    
  11 C11            1.3239    -2.8158     1.2687 C.ar    
  12 C12            0.7463    -2.9238    -1.0450 C.2     
  13 N13            0.1229    -3.8972    -0.3514 N.am    
  14 O14            0.6585    -2.7120    -2.2361 O.2     
  15 C15            1.7778    -2.5850     2.5476 C.ar    
  16 C16            1.3575    -3.3933     3.5892 C.ar    
  17 C17            0.4796    -4.4327     3.3425 C.ar    
  18 C18            0.0214    -4.6680     2.0627 C.ar    
  19 C19           -1.1140     2.3831    -0.0210 C.3     
  20 C20           -0.3708     3.6844     0.3631 C.3     
  21 O21            0.9704     3.4296    -0.0880 O.3     
  22 C22           -0.7814    -4.8800    -0.9537 C.3     
  23 C23           -2.1910    -4.3477    -0.9276 C.ar    
  24 C24           -2.6654    -3.6033    -1.9881 C.ar    
  25 C25           -3.0084    -4.6114     0.1569 C.ar    
  26 C26           -4.3042    -4.1268     0.1884 C.ar    
  27 C27           -4.7892    -3.3772    -0.8630 C.ar    
  28 C28           -3.9712    -3.1116    -1.9626 C.ar    
  29 C29           -4.4845    -2.3089    -3.0931 C.2     
  30 O30           -3.7405    -1.5568    -3.6917 O.2     
  31 N31           -5.7774    -2.4110    -3.4599 N.am    
  32 C32           -6.3170    -1.5266    -4.4957 C.3     
  33 C33           -6.1420    -2.1815    -5.8673 C.3     
  34 C34           -6.7056    -1.2578    -6.9491 C.3     
  35 C35           -6.5305    -1.9127    -8.3207 C.3     
  36 C36           -6.6431    -3.4064    -2.8228 C.3     
  37 C37           -7.0941    -0.9890    -9.4025 C.3     
  38 C38           -6.9190    -1.6439   -10.7741 C.3     
  39 H39           -0.9065    -0.5521    -0.0288 H       
  40 H40            3.3414     1.9433    -0.0604 H       
  41 H41            3.1895    -2.2801    -1.5023 H       
  42 H42            3.5934    -2.9350     0.1195 H       
  43 H43            2.4632    -1.7723     2.7383 H       
  44 H44            1.7145    -3.2129     4.5924 H       
  45 H45            0.1514    -5.0634     4.1554 H       
  46 H46           -0.6639    -5.4819     1.8777 H       
  47 H47           -1.5734     2.4730    -1.0053 H       
  48 H48           -1.8577     2.1225     0.7321 H       
  49 H49           -0.7974     4.5412    -0.1585 H       
  50 H50           -0.3927     3.8377     1.4421 H       
  51 H51           -0.4818    -5.0649    -1.9852 H       
  52 H52           -0.7341    -5.8111    -0.3890 H       
  53 H53           -2.0275    -3.4013    -2.8359 H       
  54 H54           -2.6336    -5.1983     0.9824 H       
  55 H55           -4.9372    -4.3361     1.0381 H       
  56 H56           -5.8009    -2.9999    -0.8373 H       
  57 H57           -7.3767    -1.3524    -4.3088 H       
  58 H58           -5.7836    -0.5763    -4.4760 H       
  59 H59           -5.0824    -2.3557    -6.0542 H       
  60 H60           -6.6754    -3.1318    -5.8870 H       
  61 H61           -7.7652    -1.0836    -6.7622 H       
  62 H62           -6.1721    -0.3075    -6.9294 H       
  63 H63           -5.4709    -2.0869    -8.5076 H       
  64 H64           -7.0640    -2.8630    -8.3404 H       
  65 H65           -7.0507    -2.9955    -1.8991 H       
  66 H66           -7.4597    -3.6630    -3.4977 H       
  67 H67           -6.0631    -4.3014    -2.5975 H       
  68 H68           -8.1537    -0.8148    -9.2156 H       
  69 H69           -6.5606    -0.0387    -9.3828 H       
  70 H70           -7.3205    -0.9858   -11.5448 H       
  71 H71           -5.8594    -1.8181   -10.9610 H       
  72 H72           -7.4525    -2.5942   -10.7938 H       
@<TRIPOS>BOND
   1    1    2 ar
   2    1    6 ar
   3    1   19 1
   4    2    3 ar
   5    2   39 1
   6    3    4 ar
   7    3    8 1
   8    4    5 ar
   9    4    7 1
  10    5    6 ar
  11    5   40 1
  12    6   21 1
  13    7    9 1
  14    8    9 1
  15    8   11 1
  16    8   12 1
  17    9   41 1
  18    9   42 1
  19   10   11 ar
  20   10   13 1
  21   10   18 ar
  22   11   15 ar
  23   12   13 am
  24   12   14 2
  25   13   22 1
  26   15   16 ar
  27   15   43 1
  28   16   17 ar
  29   16   44 1
  30   17   18 ar
  31   17   45 1
  32   18   46 1
  33   19   20 1
  34   19   47 1
  35   19   48 1
  36   20   21 1
  37   20   49 1
  38   20   50 1
  39   22   23 1
  40   22   51 1
  41   22   52 1
  42   23   24 ar
  43   23   25 ar
  44   24   28 ar
  45   24   53 1
  46   25   26 ar
  47   25   54 1
  48   26   27 ar
  49   26   55 1
  50   27   28 ar
  51   27   56 1
  52   28   29 1
  53   29   30 2
  54   29   31 am
  55   31   32 1
  56   31   36 1
  57   32   33 1
  58   32   57 1
  59   32   58 1
  60   33   34 1
  61   33   59 1
  62   33   60 1
  63   34   35 1
  64   34   61 1
  65   34   62 1
  66   35   37 1
  67   35   63 1
  68   35   64 1
  69   36   65 1
  70   36   66 1
  71   36   67 1
  72   37   38 1
  73   37   68 1
  74   37   69 1
  75   38   70 1
  76   38   71 1
  77   38   72 1

#	End of record

