#	Name: ASD00170157
#	Creating user name:	WinNT
#	Creation time:	15. 06. 2019 18:31

#	Modifying user name:	WinNT
#	Modification time:	15. 06. 2019 18:31

#	Program:	/corina/corina34_cracker 3.40 0067  02.08.2006

@<TRIPOS>MOLECULE
ASD00170157
  29   30    0    0    0
SMALL
NO_CHARGES


@<TRIPOS>ATOM
   1 C1            -0.0066     1.3213    -0.1237 C.2     
   2 C2             0.0152    -0.0021    -0.1523 C.2     
   3 C3            -1.2927    -0.5980     0.0225 C.2     
   4 C4            -2.2861     0.3404     0.1820 C.2     
   5 S5            -1.6379     1.9159     0.1278 S.3     
   6 N6            -3.6218     0.0466     0.3662 N.pl3   
   7 C7            -1.5320    -2.0408     0.0280 C.2     
   8 C8            -1.5308    -2.7859     1.3060 C.ar    
   9 O9            -1.7322    -2.6288    -1.0194 O.2     
  10 C10            1.2082     2.1993    -0.2798 C.3     
  11 C11            1.2741    -0.8070    -0.3479 C.3     
  12 C12           -1.8498    -4.1442     1.3254 C.ar    
  13 C13           -1.8463    -4.8338     2.5215 C.ar    
  14 C14           -1.5272    -4.1802     3.6993 C.ar    
  15 C15           -1.2101    -2.8334     3.6860 C.ar    
  16 C16           -1.2049    -2.1345     2.4968 C.ar    
  17 Br17          -2.2788    -6.6745     2.5509 Br      
  18 H18           -3.9286    -0.8719     0.3099 H       
  19 H19           -4.2539     0.7585     0.5519 H       
  20 H20            1.3562     2.4306    -1.3346 H       
  21 H21            1.0620     3.1243     0.2780 H       
  22 H22            2.0850     1.6781     0.1044 H       
  23 H23            1.7229    -1.0210     0.6221 H       
  24 H24            1.0323    -1.7433    -0.8509 H       
  25 H25            1.9778    -0.2388    -0.9564 H       
  26 H26           -2.0992    -4.6548     0.4069 H       
  27 H27           -1.5262    -4.7237     4.6326 H       
  28 H28           -0.9624    -2.3291     4.6084 H       
  29 H29           -0.9567    -1.0834     2.4881 H       
@<TRIPOS>BOND
   1    1    2 2
   2    1   10 1
   3    1    5 1
   4    2    3 1
   5    2   11 1
   6    3    4 2
   7    3    7 1
   8    4    5 1
   9    4    6 1
  10    6   18 1
  11    6   19 1
  12    7    8 1
  13    7    9 2
  14    8   12 ar
  15    8   16 ar
  16   10   20 1
  17   10   21 1
  18   10   22 1
  19   11   23 1
  20   11   24 1
  21   11   25 1
  22   12   13 ar
  23   12   26 1
  24   13   14 ar
  25   13   17 1
  26   14   15 ar
  27   14   27 1
  28   15   16 ar
  29   15   28 1
  30   16   29 1

#	End of record

