#	Name: ASD04882025
#	Creating user name:	WinNT
#	Creation time:	15. 06. 2019 20:53

#	Modifying user name:	WinNT
#	Modification time:	15. 06. 2019 20:53

#	Program:	/corina/corina34_cracker 3.40 0067  02.08.2006

@<TRIPOS>MOLECULE
ASD04882025
  74   78    0    0    0
SMALL
NO_CHARGES


@<TRIPOS>ATOM
   1 C1             1.0160    -0.3252    -1.2354 C.ar    
   2 C2             0.8440    -1.3034    -2.1973 C.ar    
   3 C3             1.8290    -1.5302    -3.1414 C.ar    
   4 C4             2.9879    -0.7796    -3.1262 C.ar    
   5 C5             3.1640     0.2041    -2.1612 C.ar    
   6 C6             2.1729     0.4292    -1.2145 C.ar    
   7 N7             4.3353     0.9648    -2.1427 N.3     
   8 C8             5.1022     0.7211    -0.9130 C.3     
   9 C9             6.4126     1.5100    -0.9674 C.3     
  10 N10            6.1141     2.9404    -1.1236 N.3     
  11 C11            5.3472     3.1842    -2.3532 C.3     
  12 C12            4.0368     2.3953    -2.2988 C.3     
  13 C13            7.2818     3.6988    -1.1051 C.ar    
  14 C14            7.6934     4.3672    -2.2520 C.ar    
  15 C15            8.8479     5.1186    -2.2383 C.ar    
  16 C16            9.6088     5.2112    -1.0699 C.ar    
  17 C17            9.1967     4.5401     0.0854 C.ar    
  18 C18            8.0355     3.7915     0.0687 C.ar    
  19 N19            7.6189     3.1179     1.2244 N.am    
  20 C20            8.5259     2.7327     2.1438 C.2     
  21 C21            8.1026     1.9476     3.3067 C.2     
  22 O22            9.6967     3.0367     2.0082 O.2     
  23 S23            6.4562     1.4306     3.6438 S.3     
  24 C24           10.8454     6.0155    -1.0556 C.2     
  25 N25           11.2420     6.6616    -2.1699 N.am    
  26 O26           11.5069     6.0955    -0.0384 O.2     
  27 C27           12.4700     7.4604    -2.1556 C.3     
  28 C28           12.6896     8.0829    -3.5359 C.3     
  29 C29           13.9721     8.9171    -3.5210 C.3     
  30 N30           14.1823     9.5131    -4.8426 N.am    
  31 C31           13.7079    10.7137    -5.2173 C.2     
  32 C32           14.9432     8.8789    -5.9256 C.3     
  33 C33           14.5357     9.6319    -7.2114 C.3     
  34 C34           14.1053    11.0070    -6.6473 C.3     
  35 O35           13.0556    11.4539    -4.5119 O.2     
  36 C36            8.9252     1.4952     4.2998 C.2     
  37 C37            8.2633     0.7826     5.2715 C.2     
  38 C38            6.9451     0.6525     5.0813 C.2     
  39 C39            4.0608    -1.0277    -4.1551 C.3     
  40 H40            0.2430    -0.1477    -0.5024 H       
  41 H41           -0.0613    -1.8921    -2.2111 H       
  42 H42            1.6916    -2.2953    -3.8911 H       
  43 H43            2.3066     1.1932    -0.4630 H       
  44 H44            4.5189     1.0438    -0.0506 H       
  45 H45            5.3217    -0.3431    -0.8263 H       
  46 H46            6.9699     1.3535    -0.0438 H       
  47 H47            7.0080     1.1681    -1.8140 H       
  48 H48            5.1276     4.2483    -2.4400 H       
  49 H49            5.9304     2.8614    -3.2156 H       
  50 H50            3.4795     2.5517    -3.2225 H       
  51 H51            3.4414     2.7371    -1.4522 H       
  52 H52            7.1069     4.2970    -3.1562 H       
  53 H53            9.1655     5.6362    -3.1313 H       
  54 H54            9.7829     4.6096     0.9897 H       
  55 H55            6.6776     2.9289     1.3628 H       
  56 H56           10.7144     6.5978    -2.9813 H       
  57 H57           12.3806     8.2509    -1.4105 H       
  58 H58           13.3167     6.8206    -1.9067 H       
  59 H59           12.7790     7.2923    -4.2810 H       
  60 H60           11.8429     8.7227    -3.7848 H       
  61 H61           13.8827     9.7076    -2.7759 H       
  62 H62           14.8188     8.2773    -3.2721 H       
  63 H63           16.0132     8.9870    -5.7482 H       
  64 H64           14.6780     7.8247    -6.0057 H       
  65 H65           15.3844     9.7376    -7.8871 H       
  66 H66           13.7033     9.1335    -7.7081 H       
  67 H67           13.2561    11.3999    -7.2064 H       
  68 H68           14.9390    11.7086    -6.6750 H       
  69 H69            9.9893     1.6786     4.3191 H       
  70 H70            8.7705     0.3568     6.1246 H       
  71 H71            6.2797     0.1244     5.7482 H       
  72 H72            3.8337    -0.4641    -5.0600 H       
  73 H73            5.0246    -0.7070    -3.7596 H       
  74 H74            4.1001    -2.0914    -4.3898 H       
@<TRIPOS>BOND
   1    1    2 ar
   2    1    6 ar
   3    1   40 1
   4    2    3 ar
   5    2   41 1
   6    3    4 ar
   7    3   42 1
   8    4    5 ar
   9    4   39 1
  10    5    6 ar
  11    5    7 1
  12    6   43 1
  13    7    8 1
  14    7   12 1
  15    8    9 1
  16    8   44 1
  17    8   45 1
  18    9   10 1
  19    9   46 1
  20    9   47 1
  21   10   11 1
  22   10   13 1
  23   11   12 1
  24   11   48 1
  25   11   49 1
  26   12   50 1
  27   12   51 1
  28   13   14 ar
  29   13   18 ar
  30   14   15 ar
  31   14   52 1
  32   15   16 ar
  33   15   53 1
  34   16   17 ar
  35   16   24 1
  36   17   18 ar
  37   17   54 1
  38   18   19 1
  39   19   20 am
  40   19   55 1
  41   20   21 1
  42   20   22 2
  43   21   23 1
  44   21   36 2
  45   23   38 1
  46   24   25 am
  47   24   26 2
  48   25   27 1
  49   25   56 1
  50   27   28 1
  51   27   57 1
  52   27   58 1
  53   28   29 1
  54   28   59 1
  55   28   60 1
  56   29   30 1
  57   29   61 1
  58   29   62 1
  59   30   31 am
  60   30   32 1
  61   31   35 2
  62   31   34 1
  63   32   33 1
  64   32   63 1
  65   32   64 1
  66   33   34 1
  67   33   65 1
  68   33   66 1
  69   34   67 1
  70   34   68 1
  71   36   37 1
  72   36   69 1
  73   37   38 2
  74   37   70 1
  75   38   71 1
  76   39   72 1
  77   39   73 1
  78   39   74 1

#	End of record

