#	Name: ASD01948190
#	Creating user name:	WinNT
#	Creation time:	15. 06. 2019 20:13

#	Modifying user name:	WinNT
#	Modification time:	15. 06. 2019 20:13

#	Program:	/corina/corina34_cracker 3.40 0067  02.08.2006

@<TRIPOS>MOLECULE
ASD01948190
  29   31    0    0    0
SMALL
NO_CHARGES


@<TRIPOS>ATOM
   1 C1            -0.4566     0.6127    -1.1358 C.ar    
   2 C2             0.0022    -0.0044     0.0392 C.ar    
   3 C3            -0.7573     0.0577     1.2100 C.ar    
   4 C4            -1.9622     0.7291     1.2069 C.ar    
   5 C5            -2.4193     1.3426     0.0401 C.ar    
   6 C6            -1.6741     1.2812    -1.1252 C.ar    
   7 F7            -2.7015     0.7923     2.3358 F       
   8 O8             0.4689     0.3915    -2.0919 O.3     
   9 C9             1.4960    -0.3295    -1.6071 C.2     
  10 C10            1.2908    -0.6131    -0.3142 C.2     
  11 F11           -0.3142    -0.5370     2.3393 F       
  12 N12           -3.6423     2.0211     0.0465 N.pl3   
  13 C13           -4.8084     1.3647    -0.3606 C.ar    
  14 C14           -6.0413     1.9997    -0.2486 C.ar    
  15 C15           -4.7376     0.0804    -0.8825 C.ar    
  16 C16           -5.8912    -0.5658    -1.2839 C.ar    
  17 C17           -7.1162     0.0649    -1.1665 C.ar    
  18 C18           -7.1914     1.3474    -0.6521 C.ar    
  19 I19           -8.8616    -0.9202    -1.7768 I       
  20 F20           -6.1145     3.2516     0.2540 F       
  21 N21           -2.1699     1.9363    -2.3568 N.pl3   
  22 O22           -1.8752     3.0946    -2.5914 O.2     
  23 O23           -2.8726     1.3170    -3.1354 O.2     
  24 H24            2.3604    -0.6356    -2.1777 H       
  25 H25            1.9425    -1.1762     0.3376 H       
  26 H26           -3.6819     2.9469     0.3332 H       
  27 H27           -3.7815    -0.4133    -0.9752 H       
  28 H28           -5.8359    -1.5649    -1.6903 H       
  29 H29           -8.1496     1.8373    -0.5616 H       
@<TRIPOS>BOND
   1    1    2 ar
   2    1    8 1
   3    1    6 ar
   4    2    3 ar
   5    2   10 1
   6    3    4 ar
   7    3   11 1
   8    4    5 ar
   9    4    7 1
  10    5    6 ar
  11    5   12 1
  12    6   21 1
  13    8    9 1
  14    9   10 2
  15    9   24 1
  16   10   25 1
  17   12   13 1
  18   12   26 1
  19   13   14 ar
  20   13   15 ar
  21   14   20 1
  22   14   18 ar
  23   15   16 ar
  24   15   27 1
  25   16   17 ar
  26   16   28 1
  27   17   18 ar
  28   17   19 1
  29   18   29 1
  30   21   22 2
  31   21   23 2

#	End of record

