#	Name: ASD03240147
#	Creating user name:	WinNT
#	Creation time:	15. 06. 2019 20:34

#	Modifying user name:	WinNT
#	Modification time:	15. 06. 2019 20:34

#	Program:	/corina/corina34_cracker 3.40 0067  02.08.2006

@<TRIPOS>MOLECULE
ASD03240147
  63   67    0    0    0
SMALL
NO_CHARGES


@<TRIPOS>ATOM
   1 C1            -1.3064    -1.9563     2.4380 C.ar    
   2 C2            -1.0388    -3.2869     2.1057 C.ar    
   3 C3            -0.2423    -1.0569     2.5634 C.ar    
   4 C4             1.0501    -1.5301     2.3499 C.ar    
   5 C5             1.2335    -2.8835     2.0190 C.ar    
   6 N6             0.1943    -3.7009     1.9112 N.ar    
   7 C7             2.6012    -3.4027     1.7887 C.ar    
   8 C8             2.2144    -0.6199     2.4694 C.ar    
   9 C9             2.2161     0.6049     1.8037 C.ar    
  10 C10            3.3026     1.4480     1.9186 C.ar    
  11 C11            4.3885     1.0798     2.6924 C.ar    
  12 C12            4.3925    -0.1346     3.3548 C.ar    
  13 C13            3.3090    -0.9831     3.2523 C.ar    
  14 C14            2.9302    -4.7030     2.1713 C.ar    
  15 C15            4.2060    -5.1812     1.9536 C.ar    
  16 C16            5.1581    -4.3737     1.3572 C.ar    
  17 C17            4.8380    -3.0829     0.9760 C.ar    
  18 C18            3.5639    -2.5953     1.1831 C.ar    
  19 C19            6.5497    -4.9023     1.1224 C.3     
  20 C20           -2.6969    -1.5033     2.6484 C.2     
  21 N21            6.6152    -5.5385    -0.2001 N.3     
  22 O22           10.2435    -7.1376    -1.2866 O.2     
  23 C23            9.3690    -7.2619    -2.1182 C.2     
  24 C24            7.9891    -6.7201    -1.8473 C.3     
  25 C25            7.9602    -6.0666    -0.4641 C.3     
  26 S26           -4.1458    -2.5028     2.5222 S.3     
  27 C27           -5.1183    -1.0871     2.9279 C.2     
  28 N28           -4.3061    -0.0821     3.1031 N.2     
  29 N29           -3.0710    -0.2961     2.9655 N.2     
  30 N30           -6.4985    -1.0501     3.0398 N.pl3   
  31 C31            9.6547    -7.9394    -3.3871 C.ar    
  32 C32            8.6227    -8.1935    -4.2988 C.ar    
  33 C33            8.8989    -8.8295    -5.4881 C.ar    
  34 C34           10.1943    -9.2215    -5.7897 C.ar    
  35 C35           11.2234    -8.9793    -4.9031 C.ar    
  36 C36           10.9685    -8.3336    -3.6998 C.ar    
  37 N37           12.0015    -8.0886    -2.8071 N.pl3   
  38 H38           -1.8565    -3.9856     2.0076 H       
  39 H39           -0.4184    -0.0224     2.8189 H       
  40 H40            1.3690     0.8933     1.1991 H       
  41 H41            3.3052     2.3970     1.4030 H       
  42 H42            5.2366     1.7428     2.7794 H       
  43 H43            5.2432    -0.4171     3.9573 H       
  44 H44            3.3131    -1.9310     3.7699 H       
  45 H45            2.1879    -5.3342     2.6372 H       
  46 H46            4.4621    -6.1878     2.2497 H       
  47 H47            5.5855    -2.4573     0.5112 H       
  48 H48            3.3151    -1.5876     0.8847 H       
  49 H49            7.2630    -4.0792     1.1654 H       
  50 H50            6.7943    -5.6355     1.8909 H       
  51 H51            5.9185    -6.2631    -0.2876 H       
  52 H52            7.7347    -5.9787    -2.6047 H       
  53 H53            7.2660    -7.5351    -1.8792 H       
  54 H54            8.6833    -5.2516    -0.4322 H       
  55 H55            8.2147    -6.8080     0.2933 H       
  56 H56           -7.0191    -1.8547     2.8894 H       
  57 H57           -6.9445    -0.2196     3.2684 H       
  58 H58            7.6116    -7.8912    -4.0692 H       
  59 H59            8.1018    -9.0247    -6.1901 H       
  60 H60           10.3991    -9.7204    -6.7254 H       
  61 H61           12.2291    -9.2886    -5.1467 H       
  62 H62           12.8087    -8.6254    -2.8403 H       
  63 H63           11.9166    -7.3804    -2.1497 H       
@<TRIPOS>BOND
   1    1    2 ar
   2    1    3 ar
   3    1   20 1
   4    2    6 ar
   5    2   38 1
   6    3    4 ar
   7    3   39 1
   8    4    5 ar
   9    4    8 1
  10    5    6 ar
  11    5    7 1
  12    7   14 ar
  13    7   18 ar
  14    8    9 ar
  15    8   13 ar
  16    9   10 ar
  17    9   40 1
  18   10   11 ar
  19   10   41 1
  20   11   12 ar
  21   11   42 1
  22   12   13 ar
  23   12   43 1
  24   13   44 1
  25   14   15 ar
  26   14   45 1
  27   15   16 ar
  28   15   46 1
  29   16   17 ar
  30   16   19 1
  31   17   18 ar
  32   17   47 1
  33   18   48 1
  34   19   21 1
  35   19   49 1
  36   19   50 1
  37   20   26 1
  38   20   29 2
  39   21   25 1
  40   21   51 1
  41   22   23 2
  42   23   24 1
  43   23   31 1
  44   24   25 1
  45   24   52 1
  46   24   53 1
  47   25   54 1
  48   25   55 1
  49   26   27 1
  50   27   28 2
  51   27   30 1
  52   28   29 1
  53   30   56 1
  54   30   57 1
  55   31   32 ar
  56   31   36 ar
  57   32   33 ar
  58   32   58 1
  59   33   34 ar
  60   33   59 1
  61   34   35 ar
  62   34   60 1
  63   35   36 ar
  64   35   61 1
  65   36   37 1
  66   37   62 1
  67   37   63 1

#	End of record

