#	Name: ASD01140505
#	Creating user name:	WinNT
#	Creation time:	15. 06. 2019 19:01

#	Modifying user name:	WinNT
#	Modification time:	15. 06. 2019 19:01

#	Program:	/corina/corina34_cracker 3.40 0067  02.08.2006

@<TRIPOS>MOLECULE
ASD01140505
  45   45    0    0    0
SMALL
NO_CHARGES


@<TRIPOS>ATOM
   1 C1            -0.0163     1.3521     0.0095 C.2     
   2 C2             0.0021    -0.0041     0.0020 C.2     
   3 C3            -1.2073    -0.7244     0.0097 C.2     
   4 C4            -1.1888    -2.0843     0.0022 C.2     
   5 C5            -2.4027    -2.8073     0.0099 C.2     
   6 N6            -2.3844    -4.1549     0.0025 N.am    
   7 O7            -3.4657    -2.2126     0.0233 O.2     
   8 C8            -3.6430    -4.9046     0.0105 C.3     
   9 C9            -1.1059    -4.8700    -0.0135 C.3     
  10 C10           -4.0949    -5.1578    -1.4291 C.3     
  11 C11           -5.4094    -5.9408    -1.4208 C.3     
  12 C12           -0.6471    -5.1267     1.4233 C.3     
  13 C13            0.6881    -5.8736     1.4065 C.3     
  14 C14           -5.8613    -6.1940    -2.8604 C.3     
  15 C15            1.1470    -6.1303     2.8434 C.3     
  16 C16            1.2434     2.1024     0.0015 C.2     
  17 C17            1.3123     3.5462     0.0086 C.2     
  18 C18            2.5567     4.0081    -0.0008 C.2     
  19 S19            3.7083     2.6841    -0.0190 S.3     
  20 C20            2.4720     1.5108    -0.0076 C.2     
  21 H21           -0.9589     1.8793     0.0168 H       
  22 H22            0.9446    -0.5313    -0.0098 H       
  23 H23           -2.1498    -0.1972     0.0215 H       
  24 H24           -0.2463    -2.6115    -0.0096 H       
  25 H25           -3.4949    -5.8579     0.5178 H       
  26 H26           -4.4056    -4.3287     0.5347 H       
  27 H27           -1.2282    -5.8214    -0.5313 H       
  28 H28           -0.3593    -4.2679    -0.5313 H       
  29 H29           -4.2431    -4.2045    -1.9365 H       
  30 H30           -3.3323    -5.7337    -1.9534 H       
  31 H31           -5.2613    -6.8941    -0.9135 H       
  32 H32           -6.1720    -5.3649    -0.8965 H       
  33 H33           -0.5248    -4.1754     1.9411 H       
  34 H34           -1.3937    -5.7289     1.9410 H       
  35 H35            0.5658    -6.8250     0.8887 H       
  36 H36            1.4348    -5.2715     0.8888 H       
  37 H37           -6.0095    -5.2407    -3.3677 H       
  38 H38           -5.0987    -6.7699    -3.3846 H       
  39 H39           -6.7978    -6.7518    -2.8545 H       
  40 H40            2.0982    -6.6624     2.8314 H       
  41 H41            1.2693    -5.1790     3.3612 H       
  42 H42            0.4003    -6.7325     3.3611 H       
  43 H43            0.4406     4.1838     0.0198 H       
  44 H44            2.8236     5.0546     0.0019 H       
  45 H45            2.6389     0.4438    -0.0124 H       
@<TRIPOS>BOND
   1    1    2 2
   2    1   16 1
   3    1   21 1
   4    2    3 1
   5    2   22 1
   6    3    4 2
   7    3   23 1
   8    4    5 1
   9    4   24 1
  10    5    6 am
  11    5    7 2
  12    6    8 1
  13    6    9 1
  14    8   10 1
  15    8   25 1
  16    8   26 1
  17    9   12 1
  18    9   27 1
  19    9   28 1
  20   10   11 1
  21   10   29 1
  22   10   30 1
  23   11   14 1
  24   11   31 1
  25   11   32 1
  26   12   13 1
  27   12   33 1
  28   12   34 1
  29   13   15 1
  30   13   35 1
  31   13   36 1
  32   14   37 1
  33   14   38 1
  34   14   39 1
  35   15   40 1
  36   15   41 1
  37   15   42 1
  38   16   17 1
  39   16   20 2
  40   17   18 2
  41   17   43 1
  42   18   19 1
  43   18   44 1
  44   19   20 1
  45   20   45 1

#	End of record

