#	Name: ASD04930032
#	Creating user name:	WinNT
#	Creation time:	15. 06. 2019 20:56

#	Modifying user name:	WinNT
#	Modification time:	15. 06. 2019 20:56

#	Program:	/corina/corina34_cracker 3.40 0067  02.08.2006

@<TRIPOS>MOLECULE
ASD04930032
  47   49    0    0    0
SMALL
NO_CHARGES


@<TRIPOS>ATOM
   1 C1             0.0284     1.0611    -0.1068 C.ar    
   2 C2            -0.0749    -0.3239    -0.0957 C.ar    
   3 C3            -1.3084    -0.9359    -0.0444 C.ar    
   4 C4            -2.4674    -0.1663    -0.0029 C.ar    
   5 C5            -2.3644     1.2362    -0.0136 C.ar    
   6 C6            -1.1040     1.8430    -0.0603 C.ar    
   7 N7            -3.7041    -0.7777     0.0476 N.am    
   8 C8            -4.8433    -0.0664     0.0881 C.2     
   9 C9            -4.8163     1.3960     0.0805 C.2     
  10 C10           -3.5827     2.0513     0.0299 C.2     
  11 O11           -3.5146     3.3987     0.0217 O.3     
  12 O12           -5.9131    -0.6474     0.1312 O.2     
  13 C13           -6.0650     2.1634     0.1245 C.2     
  14 O14           -6.0312     3.3741     0.2332 O.2     
  15 C15           -3.7762    -2.2409     0.0569 C.3     
  16 Cl16           1.5932     1.8100    -0.1724 Cl      
  17 C17           -3.7456    -2.7438     1.5015 C.3     
  18 C18           -3.9461    -4.2605     1.5178 C.3     
  19 C19           -3.9155    -4.7635     2.9624 C.3     
  20 C20           -2.5644    -4.4209     3.5932 C.3     
  21 C21           -2.3638    -2.9042     3.5769 C.3     
  22 C22           -2.3945    -2.4012     2.1323 C.3     
  23 O23           -7.2509     1.5266     0.0443 O.3     
  24 C24           -9.6846     1.4577    -0.0097 C.3     
  25 C25           -8.4460     2.3498     0.0943 C.3     
  26 H26            0.8203    -0.9271    -0.1280 H       
  27 H27           -1.3759    -2.0137    -0.0366 H       
  28 H28           -1.0204     2.9198    -0.0683 H       
  29 H29           -4.3754     3.8357    -0.0335 H       
  30 H30           -4.7022    -2.5620    -0.4201 H       
  31 H31           -2.9258    -2.6500    -0.4884 H       
  32 H32           -4.5435    -2.2657     2.0697 H       
  33 H33           -4.9087    -4.5046     1.0684 H       
  34 H34           -3.1482    -4.7387     0.9496 H       
  35 H35           -4.7134    -4.2854     3.5306 H       
  36 H36           -4.0584    -5.8441     2.9741 H       
  37 H37           -2.5426    -4.7792     4.6224 H       
  38 H38           -1.7665    -4.8990     3.0250 H       
  39 H39           -3.1618    -2.4261     4.1451 H       
  40 H40           -1.4013    -2.6601     4.0263 H       
  41 H41           -1.5965    -2.8793     1.5641 H       
  42 H42           -2.2516    -1.3207     2.1207 H       
  43 H43           -9.6598     0.9100    -0.9518 H       
  44 H44           -9.6947     0.7518     0.8208 H       
  45 H45          -10.5817     2.0757     0.0278 H       
  46 H46           -8.4707     2.8975     1.0364 H       
  47 H47           -8.4359     3.0557    -0.7362 H       
@<TRIPOS>BOND
   1    1    2 ar
   2    1   16 1
   3    1    6 ar
   4    2    3 ar
   5    2   26 1
   6    3    4 ar
   7    3   27 1
   8    4    5 ar
   9    4    7 1
  10    5    6 ar
  11    5   10 1
  12    6   28 1
  13    7    8 am
  14    7   15 1
  15    8    9 1
  16    8   12 2
  17    9   10 2
  18    9   13 1
  19   10   11 1
  20   11   29 1
  21   13   14 2
  22   13   23 1
  23   15   17 1
  24   15   30 1
  25   15   31 1
  26   17   18 1
  27   17   22 1
  28   17   32 1
  29   18   19 1
  30   18   33 1
  31   18   34 1
  32   19   20 1
  33   19   35 1
  34   19   36 1
  35   20   21 1
  36   20   37 1
  37   20   38 1
  38   21   22 1
  39   21   39 1
  40   21   40 1
  41   22   41 1
  42   22   42 1
  43   23   25 1
  44   24   25 1
  45   24   43 1
  46   24   44 1
  47   24   45 1
  48   25   46 1
  49   25   47 1

#	End of record

