#	Name: ASD01903324
#	Creating user name:	WinNT
#	Creation time:	15. 06. 2019 19:54

#	Modifying user name:	WinNT
#	Modification time:	15. 06. 2019 19:54

#	Program:	/corina/corina34_cracker 3.40 0067  02.08.2006

@<TRIPOS>MOLECULE
ASD01903324
  37   40    0    0    0
SMALL
NO_CHARGES


@<TRIPOS>ATOM
   1 N1            -0.0111     0.9658     0.0074 N.pl3   
   2 H2             0.0021    -0.0041     0.0020 H       
   3 C3             1.1793     1.6749    -0.0002 C.2     
   4 C4            -1.2896     1.6810     0.0173 C.3     
   5 S5             2.7362     0.9674    -0.0189 S.3     
   6 C6             3.4759     2.5591     0.0082 C.2     
   7 C7             2.4872     3.4839    -0.0231 C.2     
   8 N8             1.2699     2.9691     0.0002 N.2     
   9 C9             4.9270     2.9114     0.1074 C.3     
  10 C10            5.5489     3.3415    -1.2314 C.3     
  11 C11            4.5518     4.2671    -1.9536 C.3     
  12 C12            3.8980     5.2539    -1.0366 C.2     
  13 C13            2.8951     4.9175    -0.1739 C.2     
  14 N14            4.1221     6.5695    -0.8845 N.pl3   
  15 N15            3.1828     7.0678     0.0332 N.2     
  16 C16            2.4392     6.0701     0.4544 C.2     
  17 C17           -2.3922     0.7982    -0.5932 C.3     
  18 C18           -3.4512     0.5904     0.5090 C.3     
  19 C19           -3.2556     1.8000     1.4565 C.3     
  20 C20           -1.7172     1.9789     1.4693 C.3     
  21 H21           -1.2015     2.6106    -0.5450 H       
  22 H22            5.0399     3.7265     0.8222 H       
  23 H23            5.4714     2.0447     0.4824 H       
  24 H24            6.4807     3.8768    -1.0485 H       
  25 H25            5.7444     2.4621    -1.8450 H       
  26 H26            5.0817     4.8121    -2.7348 H       
  27 H27            3.7789     3.6552    -2.4187 H       
  28 H28            4.8122     7.0852    -1.3302 H       
  29 H29            1.6231     6.1340     1.1590 H       
  30 H30           -2.8397     1.2997    -1.4513 H       
  31 H31           -1.9760    -0.1624    -0.8969 H       
  32 H32           -4.4538     0.5991     0.0813 H       
  33 H33           -3.2704    -0.3438     1.0407 H       
  34 H34           -3.7445     2.6879     1.0555 H       
  35 H35           -3.6263     1.5718     2.4558 H       
  36 H36           -1.2562     1.2690     2.1560 H       
  37 H37           -1.4542     3.0009     1.7423 H       
@<TRIPOS>BOND
   1    1    2 1
   2    1    3 1
   3    1    4 1
   4    3    5 1
   5    3    8 2
   6    4   17 1
   7    4   20 1
   8    4   21 1
   9    5    6 1
  10    6    7 2
  11    6    9 1
  12    7    8 1
  13    7   13 1
  14    9   10 1
  15    9   22 1
  16    9   23 1
  17   10   11 1
  18   10   24 1
  19   10   25 1
  20   11   12 1
  21   11   26 1
  22   11   27 1
  23   12   13 2
  24   12   14 1
  25   13   16 1
  26   14   15 1
  27   14   28 1
  28   15   16 2
  29   16   29 1
  30   17   18 1
  31   17   30 1
  32   17   31 1
  33   18   19 1
  34   18   32 1
  35   18   33 1
  36   19   20 1
  37   19   34 1
  38   19   35 1
  39   20   36 1
  40   20   37 1

#	End of record

