#	Name: ASD06620023
#	Creating user name:	WinNT
#	Creation time:	15. 06. 2019 21:07

#	Modifying user name:	WinNT
#	Modification time:	15. 06. 2019 21:07

#	Program:	/corina/corina34_cracker 3.40 0067  02.08.2006

@<TRIPOS>MOLECULE
ASD06620023
  51   56    0    0    0
SMALL
NO_CHARGES


@<TRIPOS>ATOM
   1 C1            -0.7761    -3.5005    -0.5164 C.ar    
   2 C2            -0.3193    -2.2179    -0.2687 C.ar    
   3 C3             1.0604    -1.9850    -0.2204 C.ar    
   4 C4             1.9218    -3.0556    -0.4240 C.ar    
   5 C5             1.3853    -4.3046    -0.6654 C.ar    
   6 N6             0.0783    -4.4890    -0.7042 N.ar    
   7 C7             0.0175    -0.0633     0.1463 C.2     
   8 N8            -0.9392    -0.9942    -0.0351 N.am    
   9 N9             1.2328    -0.6347     0.0395 N.am    
  10 O10           -0.1853     1.1151     0.3716 O.2     
  11 C11           -2.3845    -0.7586     0.0061 C.3     
  12 C12           -3.6503    -0.9620    -3.3861 C.2     
  13 C13           -4.1142    -1.5150    -4.5965 C.2     
  14 C14           -4.4645    -0.6863    -5.6166 C.2     
  15 C15           -4.3594     0.7046    -5.4506 C.2     
  16 C16           -3.9132     1.2195    -4.2857 C.2     
  17 N17           -3.5586     0.3994    -3.2539 N.pl3   
  18 N18           -3.2432    -1.5128    -2.2511 N.2     
  19 C19           -2.8993    -0.5481    -1.3945 C.2     
  20 C20           -3.0856     0.6481    -1.9942 C.2     
  21 C21           -2.8199     2.0028    -1.3898 C.3     
  22 C22           -4.1204     2.5695    -0.8167 C.3     
  23 C23           -3.8506     3.9449    -0.2031 C.3     
  24 C24            2.5185     0.0542     0.1759 C.3     
  25 C25            2.8168     1.1932    -0.8011 C.3     
  26 C26            2.4946     1.5049     0.6617 C.3     
  27 C27           -5.0528     4.7324     0.3217 C.3     
  28 C28           -4.0645     4.1004     1.3039 C.3     
  29 H29           -1.8379    -3.6947    -0.5517 H       
  30 H30            2.9920    -2.9134    -0.3944 H       
  31 H31            2.0452    -5.1443    -0.8255 H       
  32 H32           -2.8809    -1.6217     0.4497 H       
  33 H33           -2.5912     0.1275     0.6062 H       
  34 H34           -4.1905    -2.5860    -4.7130 H       
  35 H35           -4.8213    -1.0958    -6.5501 H       
  36 H36           -4.6368     1.3650    -6.2589 H       
  37 H37           -3.8359     2.2903    -4.1687 H       
  38 H38           -2.0829     1.9067    -0.5925 H       
  39 H39           -2.4382     2.6750    -2.1583 H       
  40 H40           -4.8573     2.6656    -1.6140 H       
  41 H41           -4.5021     1.8973    -0.0482 H       
  42 H42           -3.0375     4.5110    -0.6574 H       
  43 H43            3.3547    -0.5692     0.4926 H       
  44 H44            3.8493     1.3193    -1.1270 H       
  45 H45            2.0565     1.4300    -1.5454 H       
  46 H46            1.5223     1.9467     0.8798 H       
  47 H47            3.3151     1.8360     1.2983 H       
  48 H48           -5.0304     5.8168     0.2130 H       
  49 H49           -6.0359     4.2708     0.2297 H       
  50 H50           -4.3975     3.2229     1.8582 H       
  51 H51           -3.3920     4.7689     1.8414 H       
@<TRIPOS>BOND
   1    1    2 ar
   2    1    6 ar
   3    1   29 1
   4    2    3 ar
   5    2    8 1
   6    3    4 ar
   7    3    9 1
   8    4    5 ar
   9    4   30 1
  10    5    6 ar
  11    5   31 1
  12    7    8 am
  13    7    9 am
  14    7   10 2
  15    8   11 1
  16    9   24 1
  17   11   19 1
  18   11   32 1
  19   11   33 1
  20   12   13 1
  21   12   17 1
  22   12   18 2
  23   13   14 2
  24   13   34 1
  25   14   15 1
  26   14   35 1
  27   15   16 2
  28   15   36 1
  29   16   17 1
  30   16   37 1
  31   17   20 1
  32   18   19 1
  33   19   20 2
  34   20   21 1
  35   21   22 1
  36   21   38 1
  37   21   39 1
  38   22   23 1
  39   22   40 1
  40   22   41 1
  41   23   27 1
  42   23   28 1
  43   23   42 1
  44   24   25 1
  45   24   26 1
  46   24   43 1
  47   25   26 1
  48   25   44 1
  49   25   45 1
  50   26   46 1
  51   26   47 1
  52   27   28 1
  53   27   48 1
  54   27   49 1
  55   28   50 1
  56   28   51 1

#	End of record

