#	Name: ASD01870489
#	Creating user name:	WinNT
#	Creation time:	15. 06. 2019 19:39

#	Modifying user name:	WinNT
#	Modification time:	15. 06. 2019 19:39

#	Program:	/corina/corina34_cracker 3.40 0067  02.08.2006

@<TRIPOS>MOLECULE
ASD01870489
  42   45    0    0    0
SMALL
NO_CHARGES


@<TRIPOS>ATOM
   1 C1            -0.0303     1.3965    -0.2317 C.ar    
   2 C2            -0.0273     0.0161    -0.1043 C.ar    
   3 C3             1.1518    -0.6625     0.1405 C.ar    
   4 C4             2.3476     0.0279     0.2625 C.ar    
   5 C5             2.3600     1.4078     0.1376 C.ar    
   6 C6             1.1576     2.0998    -0.1125 C.ar    
   7 C7             3.4145     2.4413     0.2066 C.2     
   8 N8             2.8482     3.6454     0.0084 N.am    
   9 C9             1.5223     3.5303    -0.1876 C.2     
  10 O10            0.7535     4.4482    -0.3907 O.2     
  11 O11            4.5945     2.2376     0.4092 O.2     
  12 C12            3.5488     4.8615     0.0054 C.ar    
  13 C13            4.0782     5.3546    -1.1793 C.ar    
  14 C14            4.7677     6.5506    -1.1826 C.ar    
  15 C15            4.9317     7.2614    -0.0005 C.ar    
  16 C16            4.4020     6.7689     1.1849 C.ar    
  17 C17            3.7074     5.5746     1.1871 C.ar    
  18 Cl18           3.0393     4.9615     2.6675 Cl      
  19 N19            5.6313     8.4739    -0.0041 N.am    
  20 C20            6.4039     8.8093     1.0481 C.2     
  21 C21            7.2197    10.0342     1.0017 C.2     
  22 O22            6.4272     8.1000     2.0361 O.2     
  23 C23            8.0166    10.4307     2.0196 C.2     
  24 S24            8.7905    11.8896     1.5783 S.3     
  25 C25            8.0063    11.8861     0.0613 C.2     
  26 N26            7.2462    10.8544    -0.0521 N.2     
  27 C27            8.1928     9.7057     3.3290 C.3     
  28 C28           -1.3190     2.1284    -0.5047 C.3     
  29 H29           -0.9527    -0.5329    -0.1967 H       
  30 H30            1.1412    -1.7380     0.2377 H       
  31 H31            3.2658    -0.5075     0.4545 H       
  32 H32            3.9510     4.8023    -2.0986 H       
  33 H33            5.1800     6.9335    -2.1044 H       
  34 H34            4.5296     7.3213     2.1041 H       
  35 H35            5.5601     9.0727    -0.7639 H       
  36 H36            8.1339    12.6427    -0.6988 H       
  37 H37            9.0149     8.9952     3.2431 H       
  38 H38            8.4159    10.4261     4.1160 H       
  39 H39            7.2751     9.1716     3.5749 H       
  40 H40           -1.7910     2.3978     0.4401 H       
  41 H41           -1.1093     3.0322    -1.0768 H       
  42 H42           -1.9887     1.4846    -1.0750 H       
@<TRIPOS>BOND
   1    1    2 ar
   2    1    6 ar
   3    1   28 1
   4    2    3 ar
   5    2   29 1
   6    3    4 ar
   7    3   30 1
   8    4    5 ar
   9    4   31 1
  10    5    7 1
  11    5    6 ar
  12    6    9 1
  13    7    8 am
  14    7   11 2
  15    8    9 am
  16    8   12 1
  17    9   10 2
  18   12   13 ar
  19   12   17 ar
  20   13   14 ar
  21   13   32 1
  22   14   15 ar
  23   14   33 1
  24   15   16 ar
  25   15   19 1
  26   16   17 ar
  27   16   34 1
  28   17   18 1
  29   19   20 am
  30   19   35 1
  31   20   21 1
  32   20   22 2
  33   21   23 2
  34   21   26 1
  35   23   24 1
  36   23   27 1
  37   24   25 1
  38   25   26 2
  39   25   36 1
  40   27   37 1
  41   27   38 1
  42   27   39 1
  43   28   40 1
  44   28   41 1
  45   28   42 1

#	End of record

