#	Name: ASD05060091
#	Creating user name:	WinNT
#	Creation time:	15. 06. 2019 20:56

#	Modifying user name:	WinNT
#	Modification time:	15. 06. 2019 20:56

#	Program:	/corina/corina34_cracker 3.40 0067  02.08.2006

@<TRIPOS>MOLECULE
ASD05060091
  15   16    0    0    0
SMALL
NO_CHARGES


@<TRIPOS>ATOM
   1 C1            -0.0172     1.4194     0.0098 C.ar    
   2 C2             0.0021    -0.0041     0.0020 C.ar    
   3 C3             1.2946    -0.6826    -0.0140 C.ar    
   4 C4             2.4740     0.1055    -0.0210 C.ar    
   5 C5             2.3866     1.4583    -0.0124 C.ar    
   6 C6             1.1562     2.1116     0.0024 C.ar    
   7 N7            -0.9839    -0.8852     0.0063 N.2     
   8 S8            -0.3921    -2.3236    -0.0074 S.3     
   9 N9             1.1283    -1.9953    -0.0199 N.2     
  10 N10           -1.2321     2.1023     0.0193 N.pl3   
  11 H11            3.4424    -0.3726    -0.0328 H       
  12 H12            3.2937     2.0444    -0.0176 H       
  13 H13            1.1321     3.1913     0.0084 H       
  14 H14           -2.0666     1.6077     0.0206 H       
  15 H15           -1.2432     3.0722     0.0246 H       
@<TRIPOS>BOND
   1    1    2 ar
   2    1    6 ar
   3    1   10 1
   4    2    3 ar
   5    2    7 2
   6    3    4 ar
   7    3    9 2
   8    4    5 ar
   9    4   11 1
  10    5    6 ar
  11    5   12 1
  12    6   13 1
  13    7    8 1
  14    8    9 1
  15   10   14 1
  16   10   15 1

#	End of record

