#	Name: ASD01811971
#	Creating user name:	WinNT
#	Creation time:	15. 06. 2019 19:27

#	Modifying user name:	WinNT
#	Modification time:	15. 06. 2019 19:27

#	Program:	/corina/corina34_cracker 3.40 0067  02.08.2006

@<TRIPOS>MOLECULE
ASD01811971
  57   61    0    0    0
SMALL
NO_CHARGES


@<TRIPOS>ATOM
   1 N1            -0.0158     1.3124     0.0093 N.ar    
   2 C2             0.0021    -0.0041     0.0020 C.ar    
   3 C3             1.1969    -0.7055    -0.0132 C.ar    
   4 C4             2.3960    -0.0149    -0.0209 C.ar    
   5 C5             1.1068     2.0194     0.0023 C.ar    
   6 C6             1.4022     3.4636     0.0062 C.2     
   7 C7             2.3561     1.3763    -0.0130 C.ar    
   8 N8             3.3288     2.3533    -0.0175 N.pl3   
   9 C9             2.7617     3.5823    -0.0066 C.2     
  10 C10            4.7713     2.0977    -0.0323 C.3     
  11 C11            0.4245     4.5603     0.0207 C.2     
  12 N12            0.8473     5.8400     0.0226 N.am    
  13 O13           -0.7668     4.3132     0.0309 O.2     
  14 C14           -0.1275     6.9335     0.0370 C.3     
  15 O15           -0.8613     9.5525     0.8837 O.3     
  16 C16           -1.4979     8.4275     1.4929 C.3     
  17 C17           -0.5403     7.2330     1.4813 C.3     
  18 C18            0.5023     8.1895    -0.5733 C.3     
  19 C19           -0.4955     9.3469    -0.4823 C.3     
  20 C20            5.2309     1.8949    -1.4531 C.ar    
  21 C21            5.6487     2.9791    -2.2037 C.ar    
  22 C22            6.0706     2.7989    -3.5054 C.ar    
  23 C23            6.0753     1.5224    -4.0631 C.ar    
  24 C24            5.6536     0.4340    -3.3028 C.ar    
  25 C25            5.2389     0.6245    -2.0001 C.ar    
  26 C26            6.5277     1.3227    -5.4631 C.2     
  27 C27            6.5831     0.1341    -6.1306 C.2     
  28 N28            7.0468     0.3845    -7.3716 N.pl3   
  29 N29            7.2859     1.7598    -7.4802 N.2     
  30 C30            6.9720     2.3266    -6.3454 C.2     
  31 C31            7.2637    -0.6108    -8.4246 C.3     
  32 O32            1.6904     8.5256     0.1460 O.3     
  33 H33           -0.9315    -0.5470     0.0084 H       
  34 H34            1.1923    -1.7855    -0.0186 H       
  35 H35            3.3386    -0.5419    -0.0324 H       
  36 H36            3.3036     4.5165    -0.0078 H       
  37 H37            5.2957     2.9493     0.4011 H       
  38 H38            4.9877     1.2026     0.5508 H       
  39 H39            1.7971     6.0370     0.0145 H       
  40 H40           -1.0051     6.6473    -0.5426 H       
  41 H41           -1.7615     8.6721     2.5219 H       
  42 H42           -2.4005     8.1751     0.9365 H       
  43 H43           -1.0395     6.3619     1.9056 H       
  44 H44            0.3449     7.4701     2.0715 H       
  45 H45            0.7488     8.0023    -1.6184 H       
  46 H46           -1.3851     9.1066    -1.0647 H       
  47 H47           -0.0370    10.2539    -0.8763 H       
  48 H48            5.6443     3.9684    -1.7704 H       
  49 H49            6.3963     3.6461    -4.0907 H       
  50 H50            5.6549    -0.5577    -3.7305 H       
  51 H51            4.9121    -0.2186    -1.4097 H       
  52 H52            6.3057    -0.8324    -5.7364 H       
  53 H53            7.0438     3.3808    -6.1220 H       
  54 H54            6.3549    -0.7168    -9.0170 H       
  55 H55            8.0812    -0.2864    -9.0683 H       
  56 H56            7.5162    -1.5696    -7.9718 H       
  57 H57            2.1424     9.3129    -0.1871 H       
@<TRIPOS>BOND
   1    1    2 ar
   2    1    5 ar
   3    2    3 ar
   4    2   33 1
   5    3    4 ar
   6    3   34 1
   7    4    7 ar
   8    4   35 1
   9    5    7 ar
  10    5    6 1
  11    6    9 2
  12    6   11 1
  13    7    8 1
  14    8    9 1
  15    8   10 1
  16    9   36 1
  17   10   20 1
  18   10   37 1
  19   10   38 1
  20   11   12 am
  21   11   13 2
  22   12   14 1
  23   12   39 1
  24   14   18 1
  25   14   17 1
  26   14   40 1
  27   15   16 1
  28   15   19 1
  29   16   17 1
  30   16   41 1
  31   16   42 1
  32   17   43 1
  33   17   44 1
  34   18   19 1
  35   18   32 1
  36   18   45 1
  37   19   46 1
  38   19   47 1
  39   20   21 ar
  40   20   25 ar
  41   21   22 ar
  42   21   48 1
  43   22   23 ar
  44   22   49 1
  45   23   24 ar
  46   23   26 1
  47   24   25 ar
  48   24   50 1
  49   25   51 1
  50   26   27 2
  51   26   30 1
  52   27   28 1
  53   27   52 1
  54   28   29 1
  55   28   31 1
  56   29   30 2
  57   30   53 1
  58   31   54 1
  59   31   55 1
  60   31   56 1
  61   32   57 1

#	End of record

