#	Name: ASD04880730
#	Creating user name:	WinNT
#	Creation time:	15. 06. 2019 20:53

#	Modifying user name:	WinNT
#	Modification time:	15. 06. 2019 20:53

#	Program:	/corina/corina34_cracker 3.40 0067  02.08.2006

@<TRIPOS>MOLECULE
ASD04880730
  78   83    0    0    0
SMALL
NO_CHARGES


@<TRIPOS>ATOM
   1 C1             0.0069     1.3663     0.0050 C.ar    
   2 C2            -1.1977     2.0432     0.0653 C.ar    
   3 C3            -1.2164     3.4250     0.1081 C.ar    
   4 C4            -0.0312     4.1342     0.0909 C.ar    
   5 C5             1.1802     3.4575     0.0304 C.ar    
   6 C6             1.1954     2.0690    -0.0125 C.ar    
   7 C7            -0.0526     5.6403     0.1371 C.3     
   8 N8             2.3806     4.1715     0.0124 N.3     
   9 C9             3.1828     3.8832     1.2094 C.3     
  10 C10            3.1440     3.8873    -1.2107 C.3     
  11 C11            4.4105     4.7465    -1.2296 C.3     
  12 N12            5.2127     4.4583    -0.0325 N.3     
  13 C13            4.4493     4.7424     1.1906 C.3     
  14 C14            6.4094     5.1701    -0.0505 C.ar    
  15 C15            6.6410     6.1616     0.8952 C.ar    
  16 C16            7.8244     6.8688     0.8810 C.ar    
  17 C17            8.7954     6.5891    -0.0865 C.ar    
  18 C18            8.5633     5.5917    -1.0384 C.ar    
  19 C19            7.3781     4.8821    -1.0163 C.ar    
  20 N20            7.1446     3.8776    -1.9656 N.am    
  21 C21            7.6263     4.0085    -3.2176 C.2     
  22 C22            7.4896     2.9000    -4.1795 C.2     
  23 O23            8.1738     5.0413    -3.5536 O.2     
  24 C24            6.9773     0.9833    -5.0307 C.2     
  25 O25            7.6025     1.6917    -5.9816 O.3     
  26 C26            7.9303     2.8878    -5.4671 C.2     
  27 N27            6.9043     1.6941    -3.9454 N.2     
  28 C28           10.0611     7.3453    -0.1027 C.2     
  29 Cl29           8.1095     8.1071     2.0639 Cl      
  30 O30           10.2618     8.2129     0.7254 O.2     
  31 C31            6.4425    -0.4160    -5.1948 C.3     
  32 C32            5.3770    -0.6436    -6.2689 C.3     
  33 C33            6.8005    -1.1627    -6.4813 C.3     
  34 C34           15.1440     7.9500    -1.5119 C.3     
  35 C35           14.1521     8.5952    -2.4818 C.3     
  36 C36           12.8387     7.8106    -2.4650 C.3     
  37 C37           12.2534     7.8262    -1.0515 C.3     
  38 C38           13.2453     7.1810    -0.0815 C.3     
  39 C39           14.5587     7.9656    -0.0984 C.3     
  40 N40           10.9958     7.0749    -1.0354 N.am    
  41 O41           11.9123     8.4131    -3.3709 O.3     
  42 O42           13.9056     9.9451    -2.0831 O.3     
  43 H43            0.0181     0.2867    -0.0238 H       
  44 H44           -2.1259     1.4911     0.0785 H       
  45 H45           -2.1588     3.9505     0.1547 H       
  46 H46            2.1357     1.5398    -0.0591 H       
  47 H47           -0.0242     5.9724     1.1749 H       
  48 H48            0.8150     6.0324    -0.3937 H       
  49 H49           -0.9639     6.0055    -0.3365 H       
  50 H50            2.6005     4.1134     2.1016 H       
  51 H51            3.4588     2.8288     1.2170 H       
  52 H52            3.4196     2.8329    -1.2307 H       
  53 H53            2.5334     4.1205    -2.0830 H       
  54 H54            4.9928     4.5164    -2.1218 H       
  55 H55            4.1344     5.8010    -1.2371 H       
  56 H56            4.1737     5.7968     1.2105 H       
  57 H57            5.0599     4.5093     2.0628 H       
  58 H58            5.8922     6.3789     1.6425 H       
  59 H59            9.3108     5.3734    -1.7867 H       
  60 H60            6.6363     3.0883    -1.7216 H       
  61 H61            8.4453     3.6880    -5.9779 H       
  62 H62            6.3659    -1.0005    -4.2779 H       
  63 H63            4.5995    -1.3782    -6.0589 H       
  64 H64            5.0628     0.2187    -6.8568 H       
  65 H65            7.4228    -0.6419    -7.2090 H       
  66 H66            6.9595    -2.2388    -6.4110 H       
  67 H67           15.3320     6.9203    -1.8159 H       
  68 H68           16.0797     8.5089    -1.5238 H       
  69 H69           14.5691     8.5840    -3.4888 H       
  70 H70           13.0267     6.7808    -2.7690 H       
  71 H71           12.0654     8.8559    -0.7474 H       
  72 H72           12.8283     7.1921     0.9255 H       
  73 H73           13.4333     6.1513    -0.3856 H       
  74 H74           15.2654     7.5059     0.5926 H       
  75 H75           14.3707     8.9953     0.2057 H       
  76 H76           10.8357     6.3828    -1.6960 H       
  77 H77           12.2182     8.4377    -4.2878 H       
  78 H78           14.6960    10.5021    -2.0708 H       
@<TRIPOS>BOND
   1    1    2 ar
   2    1    6 ar
   3    1   43 1
   4    2    3 ar
   5    2   44 1
   6    3    4 ar
   7    3   45 1
   8    4    5 ar
   9    4    7 1
  10    5    6 ar
  11    5    8 1
  12    6   46 1
  13    7   47 1
  14    7   48 1
  15    7   49 1
  16    8   10 1
  17    8    9 1
  18    9   13 1
  19    9   50 1
  20    9   51 1
  21   10   11 1
  22   10   52 1
  23   10   53 1
  24   11   12 1
  25   11   54 1
  26   11   55 1
  27   12   13 1
  28   12   14 1
  29   13   56 1
  30   13   57 1
  31   14   15 ar
  32   14   19 ar
  33   15   16 ar
  34   15   58 1
  35   16   17 ar
  36   16   29 1
  37   17   18 ar
  38   17   28 1
  39   18   19 ar
  40   18   59 1
  41   19   20 1
  42   20   21 am
  43   20   60 1
  44   21   22 1
  45   21   23 2
  46   22   27 1
  47   22   26 2
  48   24   25 1
  49   24   27 2
  50   24   31 1
  51   25   26 1
  52   26   61 1
  53   28   30 2
  54   28   40 am
  55   31   32 1
  56   31   33 1
  57   31   62 1
  58   32   33 1
  59   32   63 1
  60   32   64 1
  61   33   65 1
  62   33   66 1
  63   34   35 1
  64   34   39 1
  65   34   67 1
  66   34   68 1
  67   35   36 1
  68   35   42 1
  69   35   69 1
  70   36   37 1
  71   36   41 1
  72   36   70 1
  73   37   38 1
  74   37   40 1
  75   37   71 1
  76   38   39 1
  77   38   72 1
  78   38   73 1
  79   39   74 1
  80   39   75 1
  81   40   76 1
  82   41   77 1
  83   42   78 1

#	End of record

