#	Name: ASD01810228
#	Creating user name:	WinNT
#	Creation time:	15. 06. 2019 19:24

#	Modifying user name:	WinNT
#	Modification time:	15. 06. 2019 19:24

#	Program:	/corina/corina34_cracker 3.40 0067  02.08.2006

@<TRIPOS>MOLECULE
ASD01810228
  49   52    0    0    0
SMALL
NO_CHARGES


@<TRIPOS>ATOM
   1 C1             1.6012     1.7506     0.0928 C.ar    
   2 C2             1.2526     0.4079     0.0529 C.ar    
   3 C3             2.2236    -0.5715     0.0385 C.ar    
   4 C4             3.5720    -0.2151     0.0637 C.ar    
   5 C5             3.9201     1.1450     0.1036 C.ar    
   6 C6             2.9263     2.1242     0.1182 C.ar    
   7 N7             4.5528    -1.1839     0.0501 N.pl3   
   8 C8             5.8596    -0.8938     0.0735 C.2     
   9 C9             6.3238     0.4058     0.1136 C.2     
  10 C10            5.3492     1.5085     0.1299 C.2     
  11 O11            5.7079     2.6725     0.1647 O.2     
  12 C12            7.7668     0.6833     0.1398 C.2     
  13 O13            8.2077     1.9567     0.1789 O.3     
  14 O14            8.5628    -0.2353     0.1261 O.2     
  15 C15            4.1477    -2.5912     0.0089 C.3     
  16 C16            3.8835    -2.9962    -1.4184 C.ar    
  17 N17            2.6984    -2.7665    -1.9497 N.ar    
  18 C18            2.4170    -3.1008    -3.1926 C.ar    
  19 C19            3.3747    -3.7159    -3.9955 C.ar    
  20 C20            4.6406    -3.9729    -3.4616 C.ar    
  21 C21            4.8894    -3.5979    -2.1527 C.ar    
  22 C22            3.0560    -4.0927    -5.3950 C.ar    
  23 F23            1.8691    -1.8746     0.0005 F       
  24 C24            2.0990    -5.0712    -5.6549 C.ar    
  25 C25            1.8061    -5.4174    -6.9587 C.ar    
  26 C26            2.4608    -4.7949    -8.0059 C.ar    
  27 C27            3.4123    -3.8229    -7.7535 C.ar    
  28 C28            3.7088    -3.4649    -6.4542 C.ar    
  29 S29            1.2645    -5.8657    -4.3219 S.o2    
  30 O30            0.7470    -4.7947    -3.5444 O.2     
  31 O31            0.3977    -6.7962    -4.9560 O.2     
  32 C32            2.5771    -6.7322    -3.4182 C.3     
  33 H33            0.8295     2.5062     0.0995 H       
  34 H34            0.2100     0.1269     0.0333 H       
  35 H35            3.1949     3.1698     0.1486 H       
  36 H36            6.5743    -1.7033     0.0610 H       
  37 H37            9.1654     2.0894     0.1949 H       
  38 H38            4.9442    -3.2108     0.4209 H       
  39 H39            3.2409    -2.7257     0.5985 H       
  40 H40            1.4348    -2.8963    -3.5924 H       
  41 H41            5.4063    -4.4483    -4.0566 H       
  42 H42            5.8560    -3.7806    -1.7069 H       
  43 H43            1.0647    -6.1761    -7.1613 H       
  44 H44            2.2285    -5.0689    -9.0245 H       
  45 H45            3.9208    -3.3402    -8.5750 H       
  46 H46            4.4518    -2.7060    -6.2583 H       
  47 H47            3.3128    -6.0097    -3.0649 H       
  48 H48            2.1458    -7.2577    -2.5663 H       
  49 H49            3.0615    -7.4497    -4.0805 H       
@<TRIPOS>BOND
   1    1    2 ar
   2    1    6 ar
   3    1   33 1
   4    2    3 ar
   5    2   34 1
   6    3    4 ar
   7    3   23 1
   8    4    5 ar
   9    4    7 1
  10    5    6 ar
  11    5   10 1
  12    6   35 1
  13    7    8 1
  14    7   15 1
  15    8    9 2
  16    8   36 1
  17    9   10 1
  18    9   12 1
  19   10   11 2
  20   12   13 1
  21   12   14 2
  22   13   37 1
  23   15   16 1
  24   15   38 1
  25   15   39 1
  26   16   17 ar
  27   16   21 ar
  28   17   18 ar
  29   18   19 ar
  30   18   40 1
  31   19   20 ar
  32   19   22 1
  33   20   21 ar
  34   20   41 1
  35   21   42 1
  36   22   24 ar
  37   22   28 ar
  38   24   25 ar
  39   24   29 1
  40   25   26 ar
  41   25   43 1
  42   26   27 ar
  43   26   44 1
  44   27   28 ar
  45   27   45 1
  46   28   46 1
  47   29   30 2
  48   29   31 2
  49   29   32 1
  50   32   47 1
  51   32   48 1
  52   32   49 1

#	End of record

