#	Name: ASD09900027
#	Creating user name:	WinNT
#	Creation time:	15. 06. 2019 21:24

#	Modifying user name:	WinNT
#	Modification time:	15. 06. 2019 21:24

#	Program:	/corina/corina34_cracker 3.40 0067  02.08.2006

@<TRIPOS>MOLECULE
ASD09900027
  33   34    0    0    0
SMALL
NO_CHARGES


@<TRIPOS>ATOM
   1 C1            -0.0166     1.3742     0.0096 C.ar    
   2 C2             0.0021    -0.0041     0.0020 C.ar    
   3 C3             1.2142    -0.6920    -0.0128 C.ar    
   4 C4             2.4080    -0.0078    -0.0201 C.ar    
   5 C5             2.4130     1.3842    -0.0131 C.ar    
   6 C6             1.1915     2.0844     0.0019 C.ar    
   7 N7             3.4227     2.3201    -0.0170 N.pl3   
   8 C8             2.8598     3.5813    -0.0053 C.2     
   9 C9             1.5060     3.4649     0.0063 C.2     
  10 C10            3.6065     4.8482    -0.0047 C.2     
  11 O11            3.0078     5.9071     0.0066 O.2     
  12 N12            4.9541     4.8361    -0.0167 N.am    
  13 C13            5.6980     6.0981    -0.0161 C.3     
  14 C14            5.8614     6.5931     1.4223 C.3     
  15 C15            7.0778     5.8772    -0.6393 C.3     
  16 O16           -1.1684    -0.6963     0.0095 O.3     
  17 C17           -1.0787    -2.1225     0.0010 C.3     
  18 H18           -0.9576     1.9041     0.0169 H       
  19 H19            1.2164    -1.7720    -0.0183 H       
  20 H20            3.3414    -0.5510    -0.0308 H       
  21 H21            4.3730     2.1258    -0.0261 H       
  22 H22            0.7970     4.2795     0.0170 H       
  23 H23            5.4315     3.9917    -0.0258 H       
  24 H24            5.1521     6.8419    -0.5965 H       
  25 H25            6.4149     7.5322     1.4228 H       
  26 H26            4.8785     6.7506     1.8663 H       
  27 H27            6.4073     5.8494     2.0027 H       
  28 H28            6.9614     5.5245    -1.6641 H       
  29 H29            7.6313     6.8162    -0.6388 H       
  30 H30            7.6237     5.1334    -0.0589 H       
  31 H31           -0.5516    -2.4480    -0.8959 H       
  32 H32           -0.5346    -2.4576     0.8840 H       
  33 H33           -2.0815    -2.5496     0.0083 H       
@<TRIPOS>BOND
   1    1    2 ar
   2    1    6 ar
   3    1   18 1
   4    2    3 ar
   5    2   16 1
   6    3    4 ar
   7    3   19 1
   8    4    5 ar
   9    4   20 1
  10    5    7 1
  11    5    6 ar
  12    6    9 1
  13    7    8 1
  14    7   21 1
  15    8    9 2
  16    8   10 1
  17    9   22 1
  18   10   11 2
  19   10   12 am
  20   12   13 1
  21   12   23 1
  22   13   14 1
  23   13   15 1
  24   13   24 1
  25   14   25 1
  26   14   26 1
  27   14   27 1
  28   15   28 1
  29   15   29 1
  30   15   30 1
  31   16   17 1
  32   17   31 1
  33   17   32 1
  34   17   33 1

#	End of record

