#	Name: ASD03240021
#	Creating user name:	WinNT
#	Creation time:	15. 06. 2019 20:34

#	Modifying user name:	WinNT
#	Modification time:	15. 06. 2019 20:34

#	Program:	/corina/corina34_cracker 3.40 0067  02.08.2006

@<TRIPOS>MOLECULE
ASD03240021
  71   78    0    0    0
SMALL
NO_CHARGES


@<TRIPOS>ATOM
   1 C1             0.0581     1.5429     0.1627 C.ar    
   2 C2            -0.0649     0.0992    -0.0593 C.ar    
   3 N3             1.2713     2.1088     0.2007 N.ar    
   4 C4             2.3478     1.3637     0.0382 C.ar    
   5 C5             2.2251    -0.0754    -0.1836 C.ar    
   6 N6             1.0365    -0.6458    -0.2229 N.ar    
   7 C7             3.4431    -0.8988    -0.3650 C.ar    
   8 C8             3.6894     1.9900     0.0803 C.ar    
   9 C9             3.9280     3.1810    -0.6054 C.ar    
  10 C10            5.1799     3.7595    -0.5623 C.ar    
  11 C11            6.1974     3.1607     0.1589 C.ar    
  12 C12            5.9670     1.9791     0.8407 C.ar    
  13 C13            4.7177     1.3942     0.8104 C.ar    
  14 C14            3.5696    -2.1177     0.3007 C.ar    
  15 C15            4.7063    -2.8805     0.1274 C.ar    
  16 C16            5.7193    -2.4383    -0.7046 C.ar    
  17 C17            5.5996    -1.2300    -1.3677 C.ar    
  18 C18            4.4653    -0.4608    -1.2065 C.ar    
  19 C19            6.9584    -3.2759    -0.8891 C.3     
  20 N20            6.7646    -4.1947    -2.0188 N.3     
  21 C21            8.0241    -4.8576    -2.3800 C.3     
  22 C22            7.8180    -5.6924    -3.6460 C.3     
  23 C23            6.7256    -6.7348    -3.3919 C.3     
  24 C24            5.4381    -6.0210    -2.9704 C.3     
  25 C25            5.7133    -5.1767    -1.7240 C.3     
  26 N26            6.4829    -7.4986    -4.6182 N.am    
  27 C27            6.6349    -8.8755    -4.7645 C.ar    
  28 C28            6.3006    -9.1803    -6.0854 C.ar    
  29 N29            5.9560    -7.9792    -6.7009 N.am    
  30 C30            6.0695    -6.9902    -5.7944 C.2     
  31 C31            7.0236    -9.8871    -3.8995 C.ar    
  32 C32            7.0786   -11.1920    -4.3484 C.ar    
  33 C33            6.7472   -11.4942    -5.6582 C.ar    
  34 C34            6.3589   -10.4934    -6.5270 C.ar    
  35 O35            5.8414    -5.8142    -6.0080 O.2     
  36 C36           -1.3360    -0.4818    -0.0968 C.ar    
  37 C37           -2.4609     0.3153     0.0764 C.ar    
  38 C38           -2.3396     1.7095     0.2907 C.ar    
  39 C39           -1.0977     2.3127     0.3383 C.ar    
  40 C40           -3.8956     0.0247     0.0917 C.2     
  41 N41           -4.5274     1.1429     0.2945 N.2     
  42 N42           -3.6199     2.1981     0.4220 N.pl3   
  43 H43            3.1346     3.6491    -1.1690 H       
  44 H44            5.3661     4.6815    -1.0931 H       
  45 H45            7.1756     3.6173     0.1896 H       
  46 H46            6.7654     1.5160     1.4015 H       
  47 H47            4.5389     0.4720     1.3433 H       
  48 H48            2.7797    -2.4638     0.9508 H       
  49 H49            4.8057    -3.8244     0.6427 H       
  50 H50            6.3938    -0.8898    -2.0156 H       
  51 H51            4.3730     0.4822    -1.7247 H       
  52 H52            7.8096    -2.6259    -1.0914 H       
  53 H53            7.1471    -3.8501     0.0180 H       
  54 H54            8.7913    -4.1050    -2.5622 H       
  55 H55            8.3397    -5.5075    -1.5639 H       
  56 H56            7.5158    -5.0411    -4.4662 H       
  57 H57            8.7490    -6.1966    -3.9050 H       
  58 H58            7.0442    -7.4102    -2.5979 H       
  59 H59            5.0985    -5.3750    -3.7799 H       
  60 H60            4.6688    -6.7601    -2.7468 H       
  61 H61            6.0396    -5.8251    -0.9109 H       
  62 H62            4.8021    -4.6560    -1.4297 H       
  63 H63            5.6779    -7.8738    -7.6242 H       
  64 H64            7.2832    -9.6551    -2.8772 H       
  65 H65            7.3817   -11.9800    -3.6750 H       
  66 H66            6.7926   -12.5170    -6.0020 H       
  67 H67            6.1007   -10.7330    -7.5480 H       
  68 H68           -1.4430    -1.5440    -0.2598 H       
  69 H69           -1.0191     3.3772     0.5028 H       
  70 H70           -4.3490    -0.9463    -0.0425 H       
  71 H71           -3.8546     3.1262     0.5781 H       
@<TRIPOS>BOND
   1    1    2 ar
   2    1    3 ar
   3    1   39 ar
   4    2   36 ar
   5    2    6 ar
   6    3    4 ar
   7    4    5 ar
   8    4    8 1
   9    5    6 ar
  10    5    7 1
  11    7   14 ar
  12    7   18 ar
  13    8    9 ar
  14    8   13 ar
  15    9   10 ar
  16    9   43 1
  17   10   11 ar
  18   10   44 1
  19   11   12 ar
  20   11   45 1
  21   12   13 ar
  22   12   46 1
  23   13   47 1
  24   14   15 ar
  25   14   48 1
  26   15   16 ar
  27   15   49 1
  28   16   17 ar
  29   16   19 1
  30   17   18 ar
  31   17   50 1
  32   18   51 1
  33   19   20 1
  34   19   52 1
  35   19   53 1
  36   20   21 1
  37   20   25 1
  38   21   22 1
  39   21   54 1
  40   21   55 1
  41   22   23 1
  42   22   56 1
  43   22   57 1
  44   23   24 1
  45   23   26 1
  46   23   58 1
  47   24   25 1
  48   24   59 1
  49   24   60 1
  50   25   61 1
  51   25   62 1
  52   26   27 1
  53   26   30 am
  54   27   28 ar
  55   27   31 ar
  56   28   29 1
  57   28   34 ar
  58   29   30 am
  59   29   63 1
  60   30   35 2
  61   31   32 ar
  62   31   64 1
  63   32   33 ar
  64   32   65 1
  65   33   34 ar
  66   33   66 1
  67   34   67 1
  68   36   37 ar
  69   36   68 1
  70   37   38 ar
  71   37   40 1
  72   38   39 ar
  73   38   42 1
  74   39   69 1
  75   40   41 2
  76   40   70 1
  77   41   42 1
  78   42   71 1

#	End of record

