#	Name: ASD01230730
#	Creating user name:	WinNT
#	Creation time:	15. 06. 2019 19:14

#	Modifying user name:	WinNT
#	Modification time:	15. 06. 2019 19:14

#	Program:	/corina/corina34_cracker 3.40 0067  02.08.2006

@<TRIPOS>MOLECULE
ASD01230730
  58   61    0    0    0
SMALL
NO_CHARGES


@<TRIPOS>ATOM
   1 S1             1.4903     1.7049    -0.3623 S.o2    
   2 N2             0.9040     0.1804    -0.1538 N.am    
   3 C3             1.6185    -0.8770    -0.1413 C.2     
   4 N4             2.9843    -0.8853    -0.2508 N.pl3   
   5 C5             3.7868     0.2918     0.0679 C.3     
   6 C6             3.2570     1.4987    -0.7082 C.3     
   7 C7             0.9406    -2.2299     0.0025 C.3     
   8 N8             1.4208    -3.0964    -1.0822 N.am    
   9 C9             2.7178    -2.8207    -1.7102 C.3     
  10 C10            3.6376    -2.1232    -0.7026 C.3     
  11 C11            0.6744    -4.1388    -1.4979 C.2     
  12 O12           -0.3991    -4.3641    -0.9751 O.2     
  13 O13            1.1182    -4.9304    -2.4924 O.3     
  14 C14            1.9490    -3.9580     3.7828 C.ar    
  15 C15            0.9526    -2.9839     3.7019 C.ar    
  16 C16            0.6309    -2.4295     2.4771 C.ar    
  17 C17            1.2951    -2.8382     1.3350 C.ar    
  18 C18            2.2831    -3.8032     1.4106 C.ar    
  19 C19            2.6130    -4.3646     2.6278 C.ar    
  20 C20            2.3039    -4.5533     5.0946 C.ar    
  21 C21            2.3691    -5.9376     5.2397 C.ar    
  22 C22            2.6998    -6.4859     6.4624 C.ar    
  23 C23            2.9661    -5.6640     7.5425 C.ar    
  24 C24            2.9024    -4.2892     7.4043 C.ar    
  25 C25            2.5789    -3.7299     6.1847 C.ar    
  26 F26            0.3037    -2.5846     4.8176 F       
  27 O27            0.8116     2.1829    -1.5157 O.2     
  28 O28            1.3017     2.3251     0.9022 O.2     
  29 C29            0.2619    -6.0342    -2.8883 C.3     
  30 C30           -1.0849    -5.4885    -3.3671 C.3     
  31 C31            0.9283    -6.8150    -4.0229 C.3     
  32 C32            0.0402    -6.9621    -1.6922 C.3     
  33 H33            3.7270     0.4931     1.1375 H       
  34 H34            4.8250     0.1092    -0.2093 H       
  35 H35            3.4021     1.3370    -1.7764 H       
  36 H36            3.7952     2.3947    -0.3990 H       
  37 H37           -0.1402    -2.1103    -0.0726 H       
  38 H38            3.1733    -3.7582    -2.0291 H       
  39 H39            2.5719    -2.1751    -2.5762 H       
  40 H40            4.5875    -1.8825    -1.1799 H       
  41 H41            3.8095    -2.7788     0.1510 H       
  42 H42           -0.1399    -1.6759     2.4121 H       
  43 H43            2.7978    -4.1183     0.5150 H       
  44 H44            3.3850    -5.1177     2.6845 H       
  45 H45            2.1610    -6.5803     4.3971 H       
  46 H46            2.7502    -7.5587     6.5760 H       
  47 H47            3.2245    -6.0973     8.4975 H       
  48 H48            3.1110    -3.6521     8.2511 H       
  49 H49            2.5341    -2.6563     6.0767 H       
  50 H50           -0.9269    -4.8275    -4.2193 H       
  51 H51           -1.7277    -6.3172    -3.6643 H       
  52 H52           -1.5596    -4.9323    -2.5589 H       
  53 H53            1.8878    -7.2037    -3.6817 H       
  54 H54            0.2855    -7.6436    -4.3201 H       
  55 H55            1.0863    -6.1540    -4.8750 H       
  56 H56           -0.4346    -6.4058    -0.8839 H       
  57 H57           -0.6026    -7.7907    -1.9894 H       
  58 H58            0.9997    -7.3508    -1.3511 H       
@<TRIPOS>BOND
   1    1    2 am
   2    1    6 1
   3    1   27 2
   4    1   28 2
   5    2    3 2
   6    3    4 1
   7    3    7 1
   8    4    5 1
   9    4   10 1
  10    5    6 1
  11    5   33 1
  12    5   34 1
  13    6   35 1
  14    6   36 1
  15    7    8 1
  16    7   17 1
  17    7   37 1
  18    8    9 1
  19    8   11 am
  20    9   10 1
  21    9   38 1
  22    9   39 1
  23   10   40 1
  24   10   41 1
  25   11   12 2
  26   11   13 1
  27   13   29 1
  28   14   15 ar
  29   14   19 ar
  30   14   20 1
  31   15   16 ar
  32   15   26 1
  33   16   17 ar
  34   16   42 1
  35   17   18 ar
  36   18   19 ar
  37   18   43 1
  38   19   44 1
  39   20   21 ar
  40   20   25 ar
  41   21   22 ar
  42   21   45 1
  43   22   23 ar
  44   22   46 1
  45   23   24 ar
  46   23   47 1
  47   24   25 ar
  48   24   48 1
  49   25   49 1
  50   29   30 1
  51   29   32 1
  52   29   31 1
  53   30   50 1
  54   30   51 1
  55   30   52 1
  56   31   53 1
  57   31   54 1
  58   31   55 1
  59   32   56 1
  60   32   57 1
  61   32   58 1

#	End of record

