#	Name: ASD09116263
#	Creating user name:	WinNT
#	Creation time:	15. 06. 2019 21:21

#	Modifying user name:	WinNT
#	Modification time:	15. 06. 2019 21:21

#	Program:	/corina/corina34_cracker 3.40 0067  02.08.2006

@<TRIPOS>MOLECULE
ASD09116263
  74   80    0    0    0
SMALL
NO_CHARGES


@<TRIPOS>ATOM
   1 N1             0.0217     1.1784    -0.4711 N.pl3   
   2 N2             0.0259    -0.1607    -0.8937 N.2     
   3 C3             1.3161     1.5748    -0.4444 C.2     
   4 N4             2.0593     0.5563    -0.8221 N.2     
   5 C5             1.2781    -0.4950    -1.0943 C.2     
   6 N6             1.7757     2.8280    -0.0846 N.pl3   
   7 C7             3.1523     3.0704     0.0032 C.ar    
   8 C8             3.6522     4.3389    -0.2604 C.ar    
   9 C9             5.0094     4.5779    -0.1738 C.ar    
  10 C10            5.8745     3.5497     0.1770 C.ar    
  11 C11            5.3745     2.2811     0.4406 C.ar    
  12 C12            4.0168     2.0436     0.3595 C.ar    
  13 C13           -1.0959     1.9499    -0.1483 C.ar    
  14 N14           -0.9744     2.9792     0.6767 N.ar    
  15 N15           -1.9731     3.7153     1.0135 N.ar    
  16 C16           -3.1918     3.4845     0.5522 C.ar    
  17 C17           -3.4118     2.4322    -0.3412 C.ar    
  18 C18           -2.3417     1.6401    -0.6999 C.ar    
  19 C19           -4.3537     4.2973     0.9807 C.ar    
  20 C20           -5.5091     3.6459     1.4155 C.ar    
  21 C21           -5.5252     2.1437     1.4905 C.3     
  22 C22           -5.6877     1.5188     0.1075 C.3     
  23 C23           -4.7838     2.2117    -0.9087 C.3     
  24 C24           -4.3078     5.6867     0.9509 C.ar    
  25 C25           -5.4165     6.4158     1.3352 C.ar    
  26 C26           -6.5666     5.7662     1.7455 C.ar    
  27 C27           -6.6134     4.3834     1.7848 C.ar    
  28 N28            1.7236    -1.7452    -1.5224 N.pl3   
  29 N29            7.2501     3.7918     0.2643 N.3     
  30 C30            7.9755     2.5738     0.6476 C.3     
  31 C31            7.5327     4.8928     1.1940 C.3     
  32 C32            9.0260     5.2251     1.1543 C.3     
  33 C33            9.8309     3.9827     1.5456 C.3     
  34 C34            9.4820     2.8369     0.5917 C.3     
  35 N35           11.2668     4.2787     1.4529 N.3     
  36 C36           11.6499     5.3398     2.4022 C.3     
  37 C37           12.0756     3.0750     1.7407 C.3     
  38 C38           13.3465     3.6115     2.4454 C.3     
  39 C39           12.7656     4.7674     3.3017 C.3     
  40 H40            1.1448     3.5394     0.1070 H       
  41 H41            2.9795     5.1384    -0.5335 H       
  42 H42            5.3982     5.5643    -0.3791 H       
  43 H43            6.0473     1.4814     0.7130 H       
  44 H44            3.6280     1.0571     0.5645 H       
  45 H45           -2.4635     0.8065    -1.3757 H       
  46 H46           -4.5893     1.7986     1.9299 H       
  47 H47           -6.3535     1.8272     2.1243 H       
  48 H48           -5.4263     0.4619     0.1583 H       
  49 H49           -6.7257     1.6162    -0.2105 H       
  50 H50           -5.2191     3.1740    -1.1782 H       
  51 H51           -4.7069     1.5913    -1.8016 H       
  52 H52           -3.4099     6.1933     0.6293 H       
  53 H53           -5.3850     7.4951     1.3155 H       
  54 H54           -7.4331     6.3413     2.0367 H       
  55 H55           -7.5147     3.8824     2.1058 H       
  56 H56            2.6722    -1.9060    -1.6455 H       
  57 H57            1.0848    -2.4540    -1.6970 H       
  58 H58            7.6942     2.2873     1.6609 H       
  59 H59            7.7217     1.7680    -0.0412 H       
  60 H60            6.9573     5.7713     0.9020 H       
  61 H61            7.2535     4.5954     2.2048 H       
  62 H62            9.3031     5.5359     0.1470 H       
  63 H63            9.2381     6.0319     1.8559 H       
  64 H64            9.5827     3.6946     2.5671 H       
  65 H65           10.0199     1.9374     0.8912 H       
  66 H66            9.7663     3.1101    -0.4245 H       
  67 H67           12.0213     6.2080     1.8579 H       
  68 H68           10.7905     5.6208     3.0109 H       
  69 H69           11.5309     2.4010     2.4019 H       
  70 H70           12.3416     2.5661     0.8142 H       
  71 H71           13.7957     2.8452     3.0771 H       
  72 H72           14.0665     3.9877     1.7186 H       
  73 H73           13.5274     5.5219     3.4982 H       
  74 H74           12.3507     4.3852     4.2344 H       
@<TRIPOS>BOND
   1    1    2 1
   2    1    3 1
   3    1   13 1
   4    2    5 2
   5    3    4 2
   6    3    6 1
   7    4    5 1
   8    5   28 1
   9    6    7 1
  10    6   40 1
  11    7    8 ar
  12    7   12 ar
  13    8    9 ar
  14    8   41 1
  15    9   10 ar
  16    9   42 1
  17   10   11 ar
  18   10   29 1
  19   11   12 ar
  20   11   43 1
  21   12   44 1
  22   13   14 ar
  23   13   18 ar
  24   14   15 ar
  25   15   16 ar
  26   16   17 ar
  27   16   19 1
  28   17   18 ar
  29   17   23 1
  30   18   45 1
  31   19   20 ar
  32   19   24 ar
  33   20   21 1
  34   20   27 ar
  35   21   22 1
  36   21   46 1
  37   21   47 1
  38   22   23 1
  39   22   48 1
  40   22   49 1
  41   23   50 1
  42   23   51 1
  43   24   25 ar
  44   24   52 1
  45   25   26 ar
  46   25   53 1
  47   26   27 ar
  48   26   54 1
  49   27   55 1
  50   28   56 1
  51   28   57 1
  52   29   30 1
  53   29   31 1
  54   30   34 1
  55   30   58 1
  56   30   59 1
  57   31   32 1
  58   31   60 1
  59   31   61 1
  60   32   33 1
  61   32   62 1
  62   32   63 1
  63   33   34 1
  64   33   35 1
  65   33   64 1
  66   34   65 1
  67   34   66 1
  68   35   36 1
  69   35   37 1
  70   36   39 1
  71   36   67 1
  72   36   68 1
  73   37   38 1
  74   37   69 1
  75   37   70 1
  76   38   39 1
  77   38   71 1
  78   38   72 1
  79   39   73 1
  80   39   74 1

#	End of record

