#	Name: ASD03081065
#	Creating user name:	WinNT
#	Creation time:	15. 06. 2019 20:26

#	Modifying user name:	WinNT
#	Modification time:	15. 06. 2019 20:26

#	Program:	/corina/corina34_cracker 3.40 0067  02.08.2006

@<TRIPOS>MOLECULE
ASD03081065
  32   32    0    0    0
SMALL
NO_CHARGES


@<TRIPOS>ATOM
   1 C1            -0.0180     1.4730     0.0101 C.2     
   2 C2             0.0021    -0.0041     0.0020 C.ar    
   3 C3             1.2190    -0.6889    -0.0133 C.ar    
   4 C4             1.2304    -2.0681    -0.0203 C.ar    
   5 C5             0.0396    -2.7731    -0.0127 C.ar    
   6 C6            -1.1695    -2.1010     0.0020 C.ar    
   7 C7            -1.1954    -0.7216     0.0154 C.ar    
   8 O8             1.0256     2.0946     0.0035 O.2     
   9 O9            -1.1936     2.1307     0.0193 O.3     
  10 S10            2.7647    -2.9343    -0.0396 S.o2    
  11 O11            2.4944    -4.2171    -0.5879 O.2     
  12 O12            3.7232    -2.0406    -0.5889 O.2     
  13 N13            3.2069    -3.1832     1.5367 N.am    
  14 C14            2.7788    -4.3981     2.2345 C.3     
  15 C15            3.8808    -5.4554     2.1406 C.3     
  16 C16            4.0263    -2.1885     2.2334 C.3     
  17 C17            3.1187    -1.2407     3.0200 C.3     
  18 H18            2.1490    -0.1399    -0.0199 H       
  19 H19            0.0543    -3.8530    -0.0186 H       
  20 H20           -2.0952    -2.6573     0.0071 H       
  21 H21           -2.1399    -0.1982     0.0318 H       
  22 H22           -1.1561     3.0969     0.0244 H       
  23 H23            2.5857    -4.1666     3.2820 H       
  24 H24            1.8683    -4.7804     1.7731 H       
  25 H25            4.7913    -5.0731     2.6021 H       
  26 H26            3.5623    -6.3593     2.6598 H       
  27 H27            4.0739    -5.6869     1.0932 H       
  28 H28            4.7058    -2.6938     2.9197 H       
  29 H29            4.6030    -1.6184     1.5051 H       
  30 H30            2.4391    -0.7354     2.3337 H       
  31 H31            2.5419    -1.8109     3.7483 H       
  32 H32            3.7283    -0.5006     3.5384 H       
@<TRIPOS>BOND
   1    1    2 1
   2    1    8 2
   3    1    9 1
   4    2    3 ar
   5    2    7 ar
   6    3    4 ar
   7    3   18 1
   8    4    5 ar
   9    4   10 1
  10    5    6 ar
  11    5   19 1
  12    6    7 ar
  13    6   20 1
  14    7   21 1
  15    9   22 1
  16   10   11 2
  17   10   12 2
  18   10   13 am
  19   13   14 1
  20   13   16 1
  21   14   15 1
  22   14   23 1
  23   14   24 1
  24   15   25 1
  25   15   26 1
  26   15   27 1
  27   16   17 1
  28   16   28 1
  29   16   29 1
  30   17   30 1
  31   17   31 1
  32   17   32 1

#	End of record

