#	Name: ASD01940007
#	Creating user name:	WinNT
#	Creation time:	15. 06. 2019 20:11

#	Modifying user name:	WinNT
#	Modification time:	15. 06. 2019 20:11

#	Program:	/corina/corina34_cracker 3.40 0067  02.08.2006

@<TRIPOS>MOLECULE
ASD01940007
  47   49    0    0    0
SMALL
NO_CHARGES


@<TRIPOS>ATOM
   1 C1            -0.1661     1.1888    -0.0595 C.ar    
   2 C2            -0.1610    -0.0639    -0.6593 C.ar    
   3 C3            -1.2708    -0.8798    -0.5626 C.ar    
   4 C4            -2.3910    -0.4482     0.1330 C.ar    
   5 C5            -2.3971     0.8032     0.7320 C.ar    
   6 C6            -1.2859     1.6178     0.6415 C.ar    
   7 N7             0.9584     2.0161    -0.1566 N.pl3   
   8 C8             0.8022     3.3872    -0.2521 C.2     
   9 C9             1.8003     4.3509    -0.2295 C.2     
  10 C10            1.3198     5.6561    -0.3477 C.2     
  11 N11            0.0343     5.7997    -0.4608 N.2     
  12 S12           -0.6698     4.2587    -0.4314 S.3     
  13 O13            2.1573     6.7254    -0.3442 O.3     
  14 C14            3.2298     4.0277    -0.0934 C.2     
  15 N15            3.8028     3.9486     1.1588 N.pl3   
  16 N16            3.9562     3.8155    -1.1590 N.2     
  17 C17            5.2256     3.6269     1.2943 C.3     
  18 C18            6.0532     4.9065     1.1573 C.3     
  19 C19            5.4784     3.0006     2.6671 C.3     
  20 O20            5.2100     3.9646     3.6872 O.3     
  21 O21           -3.4836    -1.2520     0.2273 O.3     
  22 C22           -3.3716    -2.3989     0.9473 C.ar    
  23 C23           -2.2107    -2.6610     1.6608 C.ar    
  24 C24           -2.0994    -3.8277     2.3919 C.ar    
  25 C25           -3.1433    -4.7342     2.4128 C.ar    
  26 C26           -4.3012    -4.4755     1.7027 C.ar    
  27 C27           -4.4201    -3.3074     0.9750 C.ar    
  28 H28            0.7106    -0.3997    -1.2014 H       
  29 H29           -1.2670    -1.8539    -1.0289 H       
  30 H30           -3.2696     1.1386     1.2730 H       
  31 H31           -1.2906     2.5917     1.1081 H       
  32 H32            1.8474     1.6280    -0.1569 H       
  33 H33            2.4715     6.9819    -1.2220 H       
  34 H34            3.2638     4.1061     1.9497 H       
  35 H35            4.8982     3.6025    -1.0693 H       
  36 H36            5.5146     2.9221     0.5146 H       
  37 H37            7.1118     4.6671     1.2581 H       
  38 H38            5.8731     5.3527     0.1792 H       
  39 H39            5.7642     5.6112     1.9370 H       
  40 H40            4.8235     2.1394     2.7997 H       
  41 H41            6.5181     2.6802     2.7344 H       
  42 H42            5.3496     3.6357     4.5858 H       
  43 H43           -1.3947    -1.9536     1.6443 H       
  44 H44           -1.1960    -4.0322     2.9474 H       
  45 H45           -3.0539    -5.6461     2.9845 H       
  46 H46           -5.1149    -5.1853     1.7204 H       
  47 H47           -5.3247    -3.1057     0.4205 H       
@<TRIPOS>BOND
   1    1    2 ar
   2    1    7 1
   3    1    6 ar
   4    2    3 ar
   5    2   28 1
   6    3    4 ar
   7    3   29 1
   8    4    5 ar
   9    4   21 1
  10    5    6 ar
  11    5   30 1
  12    6   31 1
  13    7    8 1
  14    7   32 1
  15    8    9 2
  16    8   12 1
  17    9   10 1
  18    9   14 1
  19   10   11 2
  20   10   13 1
  21   11   12 1
  22   13   33 1
  23   14   15 1
  24   14   16 2
  25   15   17 1
  26   15   34 1
  27   16   35 1
  28   17   18 1
  29   17   19 1
  30   17   36 1
  31   18   37 1
  32   18   38 1
  33   18   39 1
  34   19   20 1
  35   19   40 1
  36   19   41 1
  37   20   42 1
  38   21   22 1
  39   22   23 ar
  40   22   27 ar
  41   23   24 ar
  42   23   43 1
  43   24   25 ar
  44   24   44 1
  45   25   26 ar
  46   25   45 1
  47   26   27 ar
  48   26   46 1
  49   27   47 1

#	End of record

