#	Name: ASD03240702
#	Creating user name:	WinNT
#	Creation time:	15. 06. 2019 20:35

#	Modifying user name:	WinNT
#	Modification time:	15. 06. 2019 20:35

#	Program:	/corina/corina34_cracker 3.40 0067  02.08.2006

@<TRIPOS>MOLECULE
ASD03240702
  70   77    0    0    0
SMALL
NO_CHARGES


@<TRIPOS>ATOM
   1 C1            -0.0168     1.3912     0.0097 C.ar    
   2 C2             0.0021    -0.0041     0.0020 C.ar    
   3 C3             1.2090    -0.6733    -0.0116 C.ar    
   4 C4             2.3767     0.0771    -0.0185 C.ar    
   5 C5             2.2905     1.4603    -0.0112 C.ar    
   6 N6             1.1257     2.0697     0.0024 N.ar    
   7 O7            -2.2441     0.7554     0.0356 O.3     
   8 C8            -1.4310     1.8251     0.0315 C.2     
   9 C9            -1.4350    -0.4503     0.0099 C.3     
  10 N10           -3.4091    -2.5503     0.0051 N.3     
  11 C11           -3.1944    -1.7409    -1.2012 C.3     
  12 C12           -1.7392    -1.2678    -1.2465 C.3     
  13 C13           -1.7208    -1.2903     1.2553 C.3     
  14 C14           -3.1763    -1.7633     1.2228 C.3     
  15 O15           -1.8032     2.9809     0.0445 O.2     
  16 C16           -4.7537    -3.1419     0.0096 C.3     
  17 C17           -4.8540    -4.1527     1.1229 C.ar    
  18 C18           -5.2758    -3.7544     2.3789 C.ar    
  19 C19           -5.3702    -4.6752     3.4022 C.ar    
  20 C20           -5.0393    -6.0099     3.1682 C.ar    
  21 C21           -4.6146    -6.4052     1.8996 C.ar    
  22 C22           -4.5294    -5.4760     0.8832 C.ar    
  23 C23           -4.7064    -7.9996     8.8279 C.2     
  24 N24           -5.0787    -9.2759     8.6254 N.2     
  25 C25           -5.3816    -9.7300     7.4366 C.2     
  26 C26           -5.3149    -8.8238     6.2921 C.ar    
  27 C27           -4.9231    -7.4857     6.5111 C.ar    
  28 N28           -4.6216    -7.0972     7.8023 N.pl3   
  29 C29           -5.6271    -9.2501     4.9971 C.ar    
  30 C30           -5.5361    -8.3209     3.9656 C.ar    
  31 C31           -5.1379    -7.0031     4.2622 C.ar    
  32 N32           -4.8503    -6.6356     5.5020 N.ar    
  33 N33           -4.2111    -5.8721     8.3416 N.2     
  34 C34           -4.0508    -6.0124     9.6356 C.2     
  35 C35           -4.3431    -7.3246     9.9854 C.2     
  36 C36           -5.8538    -8.7134     2.5716 C.ar    
  37 C37           -5.2774    -9.8552     2.0176 C.ar    
  38 C38           -5.5772   -10.2159     0.7197 C.ar    
  39 C39           -6.4476    -9.4464    -0.0313 C.ar    
  40 C40           -7.0222    -8.3120     0.5131 C.ar    
  41 C41           -6.7346    -7.9451     1.8120 C.ar    
  42 C42           -3.6149    -4.9282    10.5872 C.3     
  43 H43            1.2440    -1.7527    -0.0164 H       
  44 H44            3.3401    -0.4108    -0.0291 H       
  45 H45            3.1965     2.0481    -0.0170 H       
  46 H46           -3.4086    -2.3420    -2.0849 H       
  47 H47           -3.8571    -0.8758    -1.1809 H       
  48 H48           -1.5853    -0.6482    -2.1300 H       
  49 H49           -1.0766    -2.1323    -1.2875 H       
  50 H50           -1.0573    -2.1550     1.2711 H       
  51 H51           -1.5541    -0.6866     2.1475 H       
  52 H52           -3.8395    -0.8983     1.2285 H       
  53 H53           -3.3772    -2.3807     2.0983 H       
  54 H54           -5.4951    -2.3578     0.1629 H       
  55 H55           -4.9374    -3.6340    -0.9455 H       
  56 H56           -5.5315    -2.7207     2.5589 H       
  57 H57           -5.6993    -4.3631     4.3823 H       
  58 H58           -4.3567    -7.4371     1.7125 H       
  59 H59           -4.2047    -5.7816    -0.1004 H       
  60 H60           -5.6772   -10.7601     7.3029 H       
  61 H61           -5.9288   -10.2690     4.8038 H       
  62 H62           -4.2978    -7.7440    10.9796 H       
  63 H63           -4.5972   -10.4563     2.6028 H       
  64 H64           -5.1312   -11.1004     0.2893 H       
  65 H65           -6.6790    -9.7323    -1.0467 H       
  66 H66           -7.7008    -7.7149    -0.0780 H       
  67 H67           -7.1874    -7.0617     2.2375 H       
  68 H68           -4.4919    -4.4041    10.9672 H       
  69 H69           -3.0686    -5.3728    11.4190 H       
  70 H70           -2.9690    -4.2233    10.0637 H       
@<TRIPOS>BOND
   1    1    2 ar
   2    1    6 ar
   3    1    8 1
   4    2    3 ar
   5    2    9 1
   6    3    4 ar
   7    3   43 1
   8    4    5 ar
   9    4   44 1
  10    5    6 ar
  11    5   45 1
  12    7    8 1
  13    7    9 1
  14    8   15 2
  15    9   12 1
  16    9   13 1
  17   10   11 1
  18   10   14 1
  19   10   16 1
  20   11   12 1
  21   11   46 1
  22   11   47 1
  23   12   48 1
  24   12   49 1
  25   13   14 1
  26   13   50 1
  27   13   51 1
  28   14   52 1
  29   14   53 1
  30   16   17 1
  31   16   54 1
  32   16   55 1
  33   17   18 ar
  34   17   22 ar
  35   18   19 ar
  36   18   56 1
  37   19   20 ar
  38   19   57 1
  39   20   21 ar
  40   20   31 1
  41   21   22 ar
  42   21   58 1
  43   22   59 1
  44   23   24 1
  45   23   28 1
  46   23   35 2
  47   24   25 2
  48   25   26 1
  49   25   60 1
  50   26   27 ar
  51   26   29 ar
  52   27   28 1
  53   27   32 ar
  54   28   33 1
  55   29   30 ar
  56   29   61 1
  57   30   31 ar
  58   30   36 1
  59   31   32 ar
  60   33   34 2
  61   34   35 1
  62   34   42 1
  63   35   62 1
  64   36   37 ar
  65   36   41 ar
  66   37   38 ar
  67   37   63 1
  68   38   39 ar
  69   38   64 1
  70   39   40 ar
  71   39   65 1
  72   40   41 ar
  73   40   66 1
  74   41   67 1
  75   42   68 1
  76   42   69 1
  77   42   70 1

#	End of record

