#	Name: ASD03320025
#	Creating user name:	WinNT
#	Creation time:	15. 06. 2019 20:35

#	Modifying user name:	WinNT
#	Modification time:	15. 06. 2019 20:35

#	Program:	/corina/corina34_cracker 3.40 0067  02.08.2006

@<TRIPOS>MOLECULE
ASD03320025
  60   64    0    0    0
SMALL
NO_CHARGES


@<TRIPOS>ATOM
   1 C1            -0.0255     1.2817    -0.1814 C.ar    
   2 C2             0.0248    -0.0962    -0.3915 C.ar    
   3 C3             1.1310     2.0283    -0.2269 C.ar    
   4 C4             2.3542     1.4052    -0.4834 C.ar    
   5 C5             2.4035     0.0255    -0.6936 C.ar    
   6 C6             1.2459    -0.7194    -0.6478 C.ar    
   7 C7             3.5960     2.2057    -0.5329 C.2     
   8 N8             3.6069     3.3939    -1.1689 N.am    
   9 O9             4.6073     1.7924     0.0000 O.2     
  10 C10           -1.2212    -0.8994    -0.3419 C.ar    
  11 C11           -1.1838    -2.2756    -0.5500 C.ar    
  12 C12           -2.3842    -2.9842    -0.4921 C.ar    
  13 N13           -3.5116    -2.3241    -0.2420 N.ar    
  14 C14           -3.5048    -1.0200    -0.0505 C.ar    
  15 N15           -2.3940    -0.3152    -0.0917 N.ar    
  16 N16           -2.4018    -4.3560    -0.6926 N.pl3   
  17 C17           -3.6034    -5.0640    -0.5807 C.ar    
  18 C18           -3.6016    -6.3686    -0.0986 C.ar    
  19 C19           -4.7915    -7.0647     0.0103 C.ar    
  20 C20           -5.9811    -6.4647    -0.3601 C.ar    
  21 C21           -5.9853    -5.1678    -0.8397 C.ar    
  22 C22           -4.8012    -4.4641    -0.9454 C.ar    
  23 C23            4.7999     4.2514    -1.1317 C.3     
  24 C24            5.2209     4.5682    -2.5720 C.3     
  25 N25            4.0402     5.0294    -3.3157 N.am    
  26 C26            2.8472     4.1720    -3.3530 C.3     
  27 C27            2.4282     3.8526    -1.9173 C.3     
  28 C28            4.0511     6.2176    -3.9518 C.2     
  29 C29            5.2930     7.0151    -4.0054 C.ar    
  30 O30            3.0387     6.6329    -4.4813 O.2     
  31 C31            5.2796     8.3624    -3.6319 C.ar    
  32 C32            6.4475     9.1017    -3.6848 C.ar    
  33 C33            7.6238     8.5108    -4.1054 C.ar    
  34 C34            7.6427     7.1769    -4.4764 C.ar    
  35 C35            6.4880     6.4257    -4.4240 C.ar    
  36 F36            4.1296     8.9404    -3.2211 F       
  37 F37           -2.4392    -6.9549     0.2624 F       
  38 H38           -0.9721     1.7640     0.0126 H       
  39 H39            1.0919     3.0953    -0.0645 H       
  40 H40            3.3489    -0.4571    -0.8925 H       
  41 H41            1.2838    -1.7864    -0.8104 H       
  42 H42           -0.2508    -2.7808    -0.7512 H       
  43 H43           -4.4383    -0.5151     0.1500 H       
  44 H44           -1.5810    -4.8248    -0.9104 H       
  45 H45           -4.7917    -8.0778     0.3845 H       
  46 H46           -6.9091    -7.0105    -0.2748 H       
  47 H47           -6.9163    -4.7027    -1.1282 H       
  48 H48           -4.8061    -3.4512    -1.3201 H       
  49 H49            4.5684     5.1777    -0.6060 H       
  50 H50            5.6092     3.7301    -0.6203 H       
  51 H51            5.9793     5.3511    -2.5677 H       
  52 H52            5.6215     3.6701    -3.0421 H       
  53 H53            2.0379     4.6932    -3.8644 H       
  54 H54            3.0787     3.2456    -3.8786 H       
  55 H55            1.6698     3.0697    -1.9231 H       
  56 H56            2.0278     4.7496    -1.4449 H       
  57 H57            6.4399    10.1427    -3.3972 H       
  58 H58            8.5329     9.0924    -4.1452 H       
  59 H59            8.5661     6.7225    -4.8040 H       
  60 H60            6.5057     5.3856    -4.7140 H       
@<TRIPOS>BOND
   1    1    2 ar
   2    1    3 ar
   3    1   38 1
   4    2   10 1
   5    2    6 ar
   6    3    4 ar
   7    3   39 1
   8    4    5 ar
   9    4    7 1
  10    5    6 ar
  11    5   40 1
  12    6   41 1
  13    7    8 am
  14    7    9 2
  15    8   23 1
  16    8   27 1
  17   10   11 ar
  18   10   15 ar
  19   11   12 ar
  20   11   42 1
  21   12   13 ar
  22   12   16 1
  23   13   14 ar
  24   14   15 ar
  25   14   43 1
  26   16   17 1
  27   16   44 1
  28   17   18 ar
  29   17   22 ar
  30   18   19 ar
  31   18   37 1
  32   19   20 ar
  33   19   45 1
  34   20   21 ar
  35   20   46 1
  36   21   22 ar
  37   21   47 1
  38   22   48 1
  39   23   24 1
  40   23   49 1
  41   23   50 1
  42   24   25 1
  43   24   51 1
  44   24   52 1
  45   25   26 1
  46   25   28 am
  47   26   27 1
  48   26   53 1
  49   26   54 1
  50   27   55 1
  51   27   56 1
  52   28   29 1
  53   28   30 2
  54   29   31 ar
  55   29   35 ar
  56   31   32 ar
  57   31   36 1
  58   32   33 ar
  59   32   57 1
  60   33   34 ar
  61   33   58 1
  62   34   35 ar
  63   34   59 1
  64   35   60 1

#	End of record

