#	Name: ASD00960184
#	Creating user name:	WinNT
#	Creation time:	15. 06. 2019 18:53

#	Modifying user name:	WinNT
#	Modification time:	15. 06. 2019 18:53

#	Program:	/corina/corina34_cracker 3.40 0067  02.08.2006

@<TRIPOS>MOLECULE
ASD00960184
  39   42    0    0    0
SMALL
NO_CHARGES


@<TRIPOS>ATOM
   1 C1            -0.0168     1.3880     0.0097 C.2     
   2 C2             0.0021    -0.0041     0.0020 C.2     
   3 N3             1.2761     1.8325    -0.0003 N.pl3   
   4 C4             2.1100     0.7433    -0.0141 C.2     
   5 C5             1.3264    -0.4040    -0.0128 C.2     
   6 N6             1.8450     3.1137     0.0007 N.2     
   7 C7             3.1540     3.2517    -0.0114 C.2     
   8 N8             3.9757     2.1948    -0.0253 N.2     
   9 C9             3.5105     0.9600    -0.0263 C.2     
  10 N10            4.3809    -0.1120    -0.0407 N.pl3   
  11 C11            3.7332     4.6124    -0.0100 C.2     
  12 N12            3.0283     5.7808     0.0029 N.pl3   
  13 C13            3.9406     6.7982     0.0000 C.2     
  14 C14            5.1657     6.2309    -0.0144 C.2     
  15 N15            5.0152     4.9031    -0.0154 N.2     
  16 C16           -1.2118     2.2286     0.0202 C.2     
  17 O17           -2.3157     1.7168     0.0233 O.2     
  18 O18           -1.0913     3.5727     0.0264 O.3     
  19 C19           -2.3015     4.3325     0.0365 C.3     
  20 C20           -1.9713     5.8029     0.0423 C.ar    
  21 C21           -1.8261     6.4834    -1.1522 C.ar    
  22 C22           -1.5233     7.8321    -1.1469 C.ar    
  23 C23           -1.3660     8.5005     0.0528 C.ar    
  24 C24           -1.5121     7.8203     1.2473 C.ar    
  25 C25           -1.8192     6.4725     1.2421 C.ar    
  26 H26           -0.8606    -0.6539     0.0073 H       
  27 H27            1.6857    -1.4224    -0.0213 H       
  28 H28            5.3387     0.0410    -0.0502 H       
  29 H29            4.0344    -1.0180    -0.0414 H       
  30 H30            2.0626     5.8719     0.0120 H       
  31 H31            3.7228     7.8560     0.0075 H       
  32 H32            6.1071     6.7602    -0.0206 H       
  33 H33           -2.8870     4.0951    -0.8516 H       
  34 H34           -2.8778     4.0861     0.9283 H       
  35 H35           -1.9490     5.9612    -2.0895 H       
  36 H36           -1.4091     8.3636    -2.0801 H       
  37 H37           -1.1287     9.5541     0.0570 H       
  38 H38           -1.3889     8.3424     2.1847 H       
  39 H39           -1.9371     5.9418     2.1753 H       
@<TRIPOS>BOND
   1    1    2 2
   2    1    3 1
   3    1   16 1
   4    2    5 1
   5    2   26 1
   6    3    4 1
   7    3    6 1
   8    4    5 2
   9    4    9 1
  10    5   27 1
  11    6    7 2
  12    7    8 1
  13    7   11 1
  14    8    9 2
  15    9   10 1
  16   10   28 1
  17   10   29 1
  18   11   12 1
  19   11   15 2
  20   12   13 1
  21   12   30 1
  22   13   14 2
  23   13   31 1
  24   14   15 1
  25   14   32 1
  26   16   17 2
  27   16   18 1
  28   18   19 1
  29   19   20 1
  30   19   33 1
  31   19   34 1
  32   20   21 ar
  33   20   25 ar
  34   21   22 ar
  35   21   35 1
  36   22   23 ar
  37   22   36 1
  38   23   24 ar
  39   23   37 1
  40   24   25 ar
  41   24   38 1
  42   25   39 1

#	End of record

