#	Name: ASD07930716
#	Creating user name:	WinNT
#	Creation time:	15. 06. 2019 21:13

#	Modifying user name:	WinNT
#	Modification time:	15. 06. 2019 21:13

#	Program:	/corina/corina34_cracker 3.40 0067  02.08.2006

@<TRIPOS>MOLECULE
ASD07930716
  43   45    0    0    0
SMALL
NO_CHARGES


@<TRIPOS>ATOM
   1 C1             2.8134    -1.4343    -1.6566 C.3     
   2 N2             2.4314    -3.4612     0.5013 N.2     
   3 N3             0.3010    -3.7014    -0.4287 N.pl3   
   4 C4            -0.9876    -3.0457    -0.1826 C.3     
   5 C5            -1.1148    -1.8201    -1.0979 C.3     
   6 S6             0.3131    -0.7317    -0.7967 S.o2    
   7 N7             1.6034    -1.7804    -0.9067 N.am    
   8 C8             1.4750    -2.9978    -0.2533 C.2     
   9 C9            -1.0640    -2.6016     1.2796 C.3     
  10 O10            0.4945     0.1729    -1.8774 O.2     
  11 O11            0.3304    -0.2839     0.5518 O.2     
  12 C12           -2.1074    -4.0109    -0.4754 C.2     
  13 S13           -3.3797    -4.4570     0.6536 S.3     
  14 C14           -4.1052    -5.5275    -0.5386 C.2     
  15 C15           -3.3800    -5.4920    -1.6742 C.2     
  16 C16           -2.2862    -4.6521    -1.6339 C.2     
  17 C17           -5.3216    -6.3411    -0.3275 C.ar    
  18 C18           -5.9886    -6.2952     0.8945 C.ar    
  19 C19           -7.1348    -7.0655     1.0851 C.ar    
  20 C20           -7.6065    -7.8774     0.0508 C.ar    
  21 C21           -6.9398    -7.9181    -1.1578 C.ar    
  22 C22           -5.8077    -7.1530    -1.3550 C.ar    
  23 C23           -7.8266    -7.0250     2.3382 C.1     
  24 N24           -8.3754    -6.9928     3.3323 N.1     
  25 C25           -1.3559    -4.4784    -2.8067 C.3     
  26 F26           -1.6657    -5.4226    -3.7915 F       
  27 F27           -1.5038    -3.1905    -3.3325 F       
  28 F28           -0.0346    -4.6610    -2.3848 F       
  29 H29            3.5212    -0.9358    -0.9943 H       
  30 H30            3.2661    -2.3423    -2.0549 H       
  31 H31            2.5532    -0.7673    -2.4785 H       
  32 H32            3.2500    -2.9531     0.6136 H       
  33 H33            0.3281    -4.6292    -0.7104 H       
  34 H34           -1.1205    -2.1389    -2.1402 H       
  35 H35           -2.0378    -1.2865    -0.8712 H       
  36 H36           -0.1932    -1.9916     1.5199 H       
  37 H37           -1.9710    -2.0174     1.4350 H       
  38 H38           -1.0821    -3.4795     1.9254 H       
  39 H39           -3.6372    -6.0722    -2.5481 H       
  40 H40           -5.6192    -5.6660     1.6908 H       
  41 H41           -8.4943    -8.4748     0.1968 H       
  42 H42           -7.3082    -8.5480    -1.9539 H       
  43 H43           -5.2913    -7.1893    -2.3029 H       
@<TRIPOS>BOND
   1    1    7 1
   2    1   29 1
   3    1   30 1
   4    1   31 1
   5    2    8 2
   6    2   32 1
   7    3    4 1
   8    3    8 1
   9    3   33 1
  10    4    5 1
  11    4    9 1
  12    4   12 1
  13    5    6 1
  14    5   34 1
  15    5   35 1
  16    6    7 am
  17    6   10 2
  18    6   11 2
  19    7    8 1
  20    9   36 1
  21    9   37 1
  22    9   38 1
  23   12   13 1
  24   12   16 2
  25   13   14 1
  26   14   15 2
  27   14   17 1
  28   15   16 1
  29   15   39 1
  30   16   25 1
  31   17   18 ar
  32   17   22 ar
  33   18   19 ar
  34   18   40 1
  35   19   20 ar
  36   19   23 1
  37   20   21 ar
  38   20   41 1
  39   21   22 ar
  40   21   42 1
  41   22   43 1
  42   23   24 3
  43   25   26 1
  44   25   27 1
  45   25   28 1

#	End of record

