#	Name: ASD00960065
#	Creating user name:	WinNT
#	Creation time:	15. 06. 2019 18:53

#	Modifying user name:	WinNT
#	Modification time:	15. 06. 2019 18:53

#	Program:	/corina/corina34_cracker 3.40 0067  02.08.2006

@<TRIPOS>MOLECULE
ASD00960065
  41   44    0    0    0
SMALL
NO_CHARGES


@<TRIPOS>ATOM
   1 C1            -0.5631     1.6884    -0.8829 C.3     
   2 C2            -0.5480     0.1495    -1.0202 C.3     
   3 C3            -0.7202    -0.3583     0.4286 C.3     
   4 O4            -1.3733     0.7258     1.1244 O.3     
   5 C5            -0.7427     1.9284     0.6326 C.3     
   6 C6            -1.6438     3.1405     0.8768 C.3     
   7 F7             0.6477     2.2320    -1.3252 F       
   8 C8            -1.5839    -1.5930     0.4525 C.2     
   9 C9            -1.1444    -2.8587     0.2556 C.2     
  10 N10           -2.9185    -1.6092     0.6801 N.pl3   
  11 C11           -3.3613    -2.9138     0.6256 C.2     
  12 C12           -2.2545    -3.7217     0.3578 C.2     
  13 N13           -3.8564    -0.5998     0.9418 N.2     
  14 C14           -5.1118    -0.9064     1.1264 C.2     
  15 N15           -5.5509    -2.1619     1.0761 N.2     
  16 C16           -4.7311    -3.1729     0.8350 C.2     
  17 O17           -1.7621     3.3705     2.2822 O.3     
  18 N18           -5.2125    -4.4666     0.7877 N.pl3   
  19 C19           -2.2479    -5.1884     0.2110 C.2     
  20 N20           -3.0650    -5.8782    -0.5358 N.2     
  21 C21           -2.9082    -7.1834    -0.5423 C.2     
  22 C22           -1.9213    -7.6558     0.2238 C.2     
  23 S23           -1.1304    -6.2911     1.0101 S.3     
  24 C24           -1.7110    -0.3221    -1.8954 C.3     
  25 O25            0.6974    -0.2924    -1.5639 O.3     
  26 *26            0.9669     0.2026    -2.8563 Du      
  27 H27           -1.3977     2.1134    -1.4405 H       
  28 H28            0.2519    -0.5654     0.8761 H       
  29 H29            0.2259     2.0719     1.1114 H       
  30 H30           -1.2084     4.0188     0.4003 H       
  31 H31           -2.6308     2.9502     0.4554 H       
  32 H32           -0.1252    -3.1543     0.0552 H       
  33 H33           -5.8181    -0.1144     1.3270 H       
  34 H34           -2.3207     4.1259     2.5115 H       
  35 H35           -6.1684    -4.6296     0.8122 H       
  36 H36           -4.5947    -5.2122     0.7299 H       
  37 H37           -3.5388    -7.8337    -1.1305 H       
  38 H38           -1.6515    -8.6952     0.3383 H       
  39 H39           -1.6092     0.1020    -2.8943 H       
  40 H40           -1.6994    -1.4101    -1.9596 H       
  41 H41           -2.6529     0.0059    -1.4556 H       
@<TRIPOS>BOND
   1    1    2 1
   2    1    7 1
   3    1    5 1
   4    1   27 1
   5    2   24 1
   6    2   25 1
   7    2    3 1
   8    3    4 1
   9    3    8 1
  10    3   28 1
  11    4    5 1
  12    5    6 1
  13    5   29 1
  14    6   17 1
  15    6   30 1
  16    6   31 1
  17    8    9 2
  18    8   10 1
  19    9   12 1
  20    9   32 1
  21   10   11 1
  22   10   13 1
  23   11   12 2
  24   11   16 1
  25   12   19 1
  26   13   14 2
  27   14   15 1
  28   14   33 1
  29   15   16 2
  30   16   18 1
  31   17   34 1
  32   18   35 1
  33   18   36 1
  34   19   20 2
  35   19   23 1
  36   20   21 1
  37   21   22 2
  38   21   37 1
  39   22   23 1
  40   22   38 1
  41   24   39 1
  42   24   40 1
  43   24   41 1
  44   25   26 1

#	End of record

