#	Name: ASD01812506
#	Creating user name:	WinNT
#	Creation time:	15. 06. 2019 19:28

#	Modifying user name:	WinNT
#	Modification time:	15. 06. 2019 19:28

#	Program:	/corina/corina34_cracker 3.40 0067  02.08.2006

@<TRIPOS>MOLECULE
ASD01812506
  53   57    0    0    0
SMALL
NO_CHARGES


@<TRIPOS>ATOM
   1 C1            -0.0177     1.4558     0.0100 C.ar    
   2 C2             0.0021    -0.0041     0.0020 C.ar    
   3 C3            -1.2308    -0.7010     0.0105 C.ar    
   4 C4            -2.4444     0.0180     0.0269 C.ar    
   5 C5            -2.4560     1.3723     0.0347 C.ar    
   6 C6            -1.2625     2.1109     0.0315 C.ar    
   7 C7            -1.2224    -2.1043     0.0029 C.ar    
   8 C8            -0.0350    -2.7735    -0.0125 C.ar    
   9 C9             1.1742    -2.0857    -0.0208 C.ar    
  10 C10            1.2024    -0.7216    -0.0133 C.ar    
  11 N11            1.1113     2.1840     0.0032 N.2     
  12 C12            1.0865     3.4849     0.0109 C.2     
  13 N13           -0.0634     4.2041     0.0267 N.am    
  14 C14           -1.2638     3.5794     0.0393 C.2     
  15 C15           -3.7505    -0.7338     0.0354 C.3     
  16 C16           -4.1100    -1.1002     1.4522 C.ar    
  17 C17           -3.6806    -2.2955     1.9943 C.ar    
  18 C18           -4.8714    -0.2374     2.2282 C.ar    
  19 C19           -5.1790    -0.6129     3.5245 C.ar    
  20 C20           -4.7183    -1.8328     4.0020 C.ar    
  21 N21           -3.9903    -2.6260     3.2335 N.ar    
  22 O22           -2.3051     4.2108     0.0573 O.2     
  23 O23           -5.0127    -2.2121     5.2710 O.3     
  24 C24           -4.5097    -3.4780     5.7029 C.3     
  25 C25           -0.0054     5.6680     0.0349 C.3     
  26 C26            0.7338     6.1296     1.2566 C.2     
  27 C27            1.6125     7.0801     1.2566 C.2     
  28 C28            2.0225     7.8462     0.0331 C.3     
  29 C29            0.9892     7.6550    -1.0793 C.3     
  30 C30            0.7083     6.1545    -1.2282 C.3     
  31 H31           -3.4017     1.8938     0.0469 H       
  32 H32           -2.1532    -2.6519     0.0096 H       
  33 H33           -0.0330    -3.8535    -0.0179 H       
  34 H34            2.1020    -2.6383    -0.0326 H       
  35 H35            2.1472    -0.1984    -0.0200 H       
  36 H36            2.0262     4.0173     0.0047 H       
  37 H37           -4.5342    -0.1052    -0.3874 H       
  38 H38           -3.6513    -1.6410    -0.5606 H       
  39 H39           -3.0841    -2.9685     1.3962 H       
  40 H40           -5.2156     0.7055     1.8298 H       
  41 H41           -5.7692     0.0345     4.1562 H       
  42 H42           -4.8164    -3.6585     6.7332 H       
  43 H43           -4.9078    -4.2649     5.0623 H       
  44 H44           -3.4214    -3.4763     5.6428 H       
  45 H45           -1.0186     6.0696     0.0524 H       
  46 H46            0.5191     5.6385     2.1942 H       
  47 H47            2.0793     7.3381     2.1957 H       
  48 H48            2.0974     8.9056     0.2783 H       
  49 H49            2.9929     7.4872    -0.3096 H       
  50 H50            0.0681     8.1756    -0.8173 H       
  51 H51            1.3825     8.0490    -2.0164 H       
  52 H52            1.6483     5.6159    -1.3484 H       
  53 H53            0.0719     5.9853    -2.0968 H       
@<TRIPOS>BOND
   1    1    2 ar
   2    1   11 1
   3    1    6 ar
   4    2   10 ar
   5    2    3 ar
   6    3    4 ar
   7    3    7 ar
   8    4    5 ar
   9    4   15 1
  10    5    6 ar
  11    5   31 1
  12    6   14 1
  13    7    8 ar
  14    7   32 1
  15    8    9 ar
  16    8   33 1
  17    9   10 ar
  18    9   34 1
  19   10   35 1
  20   11   12 2
  21   12   13 1
  22   12   36 1
  23   13   14 am
  24   13   25 1
  25   14   22 2
  26   15   16 1
  27   15   37 1
  28   15   38 1
  29   16   18 ar
  30   16   17 ar
  31   17   21 ar
  32   17   39 1
  33   18   19 ar
  34   18   40 1
  35   19   20 ar
  36   19   41 1
  37   20   21 ar
  38   20   23 1
  39   23   24 1
  40   24   42 1
  41   24   43 1
  42   24   44 1
  43   25   26 1
  44   25   30 1
  45   25   45 1
  46   26   27 2
  47   26   46 1
  48   27   28 1
  49   27   47 1
  50   28   29 1
  51   28   48 1
  52   28   49 1
  53   29   30 1
  54   29   50 1
  55   29   51 1
  56   30   52 1
  57   30   53 1

#	End of record

