#	Name: ASD08170054
#	Creating user name:	WinNT
#	Creation time:	15. 06. 2019 21:17

#	Modifying user name:	WinNT
#	Modification time:	15. 06. 2019 21:17

#	Program:	/corina/corina34_cracker 3.40 0067  02.08.2006

@<TRIPOS>MOLECULE
ASD08170054
  67   70    0    0    0
SMALL
NO_CHARGES


@<TRIPOS>ATOM
   1 N1            -0.0150     1.2583     0.0090 N.2     
   2 N2             0.0021    -0.0041     0.0020 N.2     
   3 C3             1.1271     1.8769     0.0014 C.2     
   4 S4             2.3826     0.7116    -0.0169 S.3     
   5 C5             1.1681    -0.5677    -0.0121 C.2     
   6 C6             1.4387    -2.0502    -0.0217 C.3     
   7 C7             1.5173    -2.5450    -1.4674 C.3     
   8 C8             2.1718    -6.2170    -3.4310 C.3     
   9 C9             2.2195    -6.5434    -4.9015 C.2     
  10 N10            3.2727    -6.5215    -5.6551 N.2     
  11 S11            0.8525    -7.0314    -5.9038 S.3     
  12 C12            1.9042    -7.1394    -7.2517 C.2     
  13 N13            3.1057    -6.8287    -6.8682 N.2     
  14 N14            1.5340    -7.5046    -8.5415 N.am    
  15 C15            2.4593    -7.5523    -9.5203 C.2     
  16 O16            3.6149    -7.2766    -9.2761 O.2     
  17 C17            2.0581    -7.9480   -10.9179 C.3     
  18 N18            1.3017     3.2566     0.0071 N.am    
  19 C19            0.2284     4.0717     0.0222 C.2     
  20 C20            0.4176     5.5667     0.0285 C.3     
  21 O21           -0.8897     3.6019     0.0309 O.2     
  22 C22            1.9004    -4.7224    -3.2489 C.3     
  23 C23            3.2877    -7.9221   -11.8281 C.3     
  24 C24           -0.9493     6.2537     0.0458 C.3     
  25 S25            1.8430    -4.3295    -1.4789 S.3     
  26 O26            4.2330    -8.9245   -11.4137 O.3     
  27 O27           -1.6612     5.9732    -1.1727 O.3     
  28 C28           -2.2341     7.2353    -1.5604 C.3     
  29 O29           -1.3319     8.2542    -1.0353 O.3     
  30 C30           -0.7776     7.7570     0.0876 C.2     
  31 C31            2.8962    -8.2835   -13.2448 C.2     
  32 O32            3.5592    -9.4111   -13.5676 O.3     
  33 C33            4.6762    -9.5377   -12.6381 C.3     
  34 C34            5.9032    -8.8038   -13.1829 C.3     
  35 C35            5.0032   -11.0136   -12.4022 C.3     
  36 O36            2.1310    -7.6743   -13.9541 O.2     
  37 O37           -0.2428     8.3929     0.9648 O.2     
  38 C38           -2.3129     7.3341    -3.0852 C.3     
  39 C39           -3.6264     7.3949    -0.9466 C.3     
  40 H40            2.3840    -2.2503     0.4827 H       
  41 H41            0.6331    -2.5700     0.4969 H       
  42 H42            0.5720    -2.3449    -1.9718 H       
  43 H43            2.3230    -2.0252    -1.9860 H       
  44 H44            1.3758    -6.7912    -2.9570 H       
  45 H45            3.1267    -6.4716    -2.9712 H       
  46 H46            0.6097    -7.7250    -8.7368 H       
  47 H47            1.6373    -8.9534   -10.9042 H       
  48 H48            1.3128    -7.2473   -11.2942 H       
  49 H49            2.1959     3.6323     0.0002 H       
  50 H50            0.9819     5.8579     0.9145 H       
  51 H51            0.9641     5.8675    -0.8654 H       
  52 H52            2.6965    -4.1481    -3.7229 H       
  53 H53            0.9455    -4.4678    -3.7088 H       
  54 H54            3.7513    -6.9359   -11.8050 H       
  55 H55           -1.5282     5.9164     0.9056 H       
  56 H56            5.6587    -7.7531   -13.3387 H       
  57 H57            6.7219    -8.8842   -12.4678 H       
  58 H58            6.2032    -9.2514   -14.1305 H       
  59 H59            5.2972   -11.4757   -13.3446 H       
  60 H60            5.8216   -11.0946   -11.6869 H       
  61 H61            4.1236   -11.5219   -12.0071 H       
  62 H62           -2.9358     6.5265    -3.4698 H       
  63 H63           -2.7480     8.2934    -3.3651 H       
  64 H64           -1.3111     7.2526    -3.5068 H       
  65 H65           -3.5510     7.3563     0.1401 H       
  66 H66           -4.0486     8.3536    -1.2477 H       
  67 H67           -4.2716     6.5883    -1.2949 H       
@<TRIPOS>BOND
   1    1    2 1
   2    1    3 2
   3    2    5 2
   4    3    4 1
   5    3   18 1
   6    4    5 1
   7    5    6 1
   8    6    7 1
   9    6   40 1
  10    6   41 1
  11    7   25 1
  12    7   42 1
  13    7   43 1
  14    8    9 1
  15    8   22 1
  16    8   44 1
  17    8   45 1
  18    9   10 2
  19    9   11 1
  20   10   13 1
  21   11   12 1
  22   12   13 2
  23   12   14 1
  24   14   15 am
  25   14   46 1
  26   15   16 2
  27   15   17 1
  28   17   23 1
  29   17   47 1
  30   17   48 1
  31   18   19 am
  32   18   49 1
  33   19   20 1
  34   19   21 2
  35   20   24 1
  36   20   50 1
  37   20   51 1
  38   22   25 1
  39   22   52 1
  40   22   53 1
  41   23   26 1
  42   23   31 1
  43   23   54 1
  44   24   27 1
  45   24   30 1
  46   24   55 1
  47   26   33 1
  48   27   28 1
  49   28   29 1
  50   28   38 1
  51   28   39 1
  52   29   30 1
  53   30   37 2
  54   31   32 1
  55   31   36 2
  56   32   33 1
  57   33   34 1
  58   33   35 1
  59   34   56 1
  60   34   57 1
  61   34   58 1
  62   35   59 1
  63   35   60 1
  64   35   61 1
  65   38   62 1
  66   38   63 1
  67   38   64 1
  68   39   65 1
  69   39   66 1
  70   39   67 1

#	End of record

