#	Name: ASD02038243
#	Creating user name:	WinNT
#	Creation time:	15. 06. 2019 20:16

#	Modifying user name:	WinNT
#	Modification time:	15. 06. 2019 20:16

#	Program:	/corina/corina34_cracker 3.40 0067  02.08.2006

@<TRIPOS>MOLECULE
ASD02038243
  58   62    0    0    0
SMALL
NO_CHARGES


@<TRIPOS>ATOM
   1 C1             0.2590     1.6473    -0.2171 C.3     
   2 C2             0.1718     0.1223    -0.1206 C.3     
   3 N3             0.8289    -0.4782    -1.2899 N.3     
   4 C4             0.7003    -1.9415    -1.2723 C.3     
   5 C5             1.6729    -2.5267    -0.2464 C.3     
   6 O6             1.2832    -2.1184     1.0664 O.3     
   7 C7             1.6485    -4.0540    -0.3338 C.3     
   8 O8             2.6395    -4.5971     0.5408 O.3     
   9 C9             2.7500    -5.9516     0.5830 C.ar    
  10 C10            3.6914    -6.5488     1.4104 C.ar    
  11 C11            1.9186    -6.7431    -0.1962 C.ar    
  12 C12            2.0270    -8.1173    -0.1554 C.ar    
  13 C13            2.9735    -8.7217     0.6697 C.ar    
  14 C14            3.7982    -7.9208     1.4491 C.ar    
  15 C15            2.2401    -0.0745    -1.3625 C.3     
  16 C16            2.3273     1.4505    -1.4590 C.3     
  17 N17            1.6702     2.0511    -0.2897 N.3     
  18 C18            1.7925     3.4418    -0.3065 C.ar    
  19 C19            2.4769     4.0647    -1.3574 C.ar    
  20 C20            2.6115     5.4164    -1.3989 C.ar    
  21 C21            2.0586     6.2078    -0.3767 C.ar    
  22 C22            1.3637     5.5857     0.6907 C.ar    
  23 C23            1.2338     4.1875     0.7080 C.ar    
  24 N24            3.2711   -10.0705     0.8813 N.am    
  25 C25            4.2667   -10.2381     1.7678 C.2     
  26 C26            4.6998    -8.8591     2.2179 C.3     
  27 O27            4.7295   -11.2957     2.1401 O.2     
  28 C28            2.1829     7.6075    -0.3936 C.ar    
  29 C29            1.6365     8.3451     0.6113 C.ar    
  30 C30            0.9536     7.7334     1.6610 C.ar    
  31 C31            0.8127     6.3808     1.7109 C.ar    
  32 H32           -0.2625     1.9855    -1.1125 H       
  33 H33           -0.2023     2.0944     0.6635 H       
  34 H34            0.6699    -0.2136     0.7889 H       
  35 H35           -0.8748    -0.1812    -0.0958 H       
  36 H36           -0.3200    -2.2133    -1.0018 H       
  37 H37            0.9322    -2.3385    -2.2605 H       
  38 H38            2.6805    -2.1669    -0.4546 H       
  39 H39            0.3949    -2.4045     1.3198 H       
  40 H40            0.6646    -4.4190    -0.0393 H       
  41 H41            1.8590    -4.3627    -1.3578 H       
  42 H42            4.3390    -5.9382     2.0221 H       
  43 H43            1.1827    -6.2809    -0.8375 H       
  44 H44            1.3761    -8.7270    -0.7645 H       
  45 H45            2.7616    -0.4126    -0.4671 H       
  46 H46            2.7014    -0.5215    -2.2431 H       
  47 H47            3.3739     1.7541    -1.4838 H       
  48 H48            1.8292     1.7864    -2.3685 H       
  49 H49            2.9040     3.4626    -2.1457 H       
  50 H50            3.1429     5.8821    -2.2158 H       
  51 H51            0.7067     3.7000     1.5148 H       
  52 H52            2.8116   -10.8016     0.4393 H       
  53 H53            5.7437    -8.6831     1.9583 H       
  54 H54            4.5473    -8.7422     3.2908 H       
  55 H55            2.7099     8.0956    -1.2001 H       
  56 H56            1.7339     9.4205     0.5951 H       
  57 H57            0.5297     8.3419     2.4462 H       
  58 H58            0.2809     5.9204     2.5305 H       
@<TRIPOS>BOND
   1    1    2 1
   2    1   17 1
   3    1   32 1
   4    1   33 1
   5    2    3 1
   6    2   34 1
   7    2   35 1
   8    3    4 1
   9    3   15 1
  10    4    5 1
  11    4   36 1
  12    4   37 1
  13    5    6 1
  14    5    7 1
  15    5   38 1
  16    6   39 1
  17    7    8 1
  18    7   40 1
  19    7   41 1
  20    8    9 1
  21    9   10 ar
  22    9   11 ar
  23   10   14 ar
  24   10   42 1
  25   11   12 ar
  26   11   43 1
  27   12   13 ar
  28   12   44 1
  29   13   14 ar
  30   13   24 1
  31   14   26 1
  32   15   16 1
  33   15   45 1
  34   15   46 1
  35   16   17 1
  36   16   47 1
  37   16   48 1
  38   17   18 1
  39   18   19 ar
  40   18   23 ar
  41   19   20 ar
  42   19   49 1
  43   20   21 ar
  44   20   50 1
  45   21   22 ar
  46   21   28 ar
  47   22   23 ar
  48   22   31 ar
  49   23   51 1
  50   24   25 am
  51   24   52 1
  52   25   26 1
  53   25   27 2
  54   26   53 1
  55   26   54 1
  56   28   29 ar
  57   28   55 1
  58   29   30 ar
  59   29   56 1
  60   30   31 ar
  61   30   57 1
  62   31   58 1

#	End of record

