#	Name: ASD04881053
#	Creating user name:	WinNT
#	Creation time:	15. 06. 2019 20:53

#	Modifying user name:	WinNT
#	Modification time:	15. 06. 2019 20:53

#	Program:	/corina/corina34_cracker 3.40 0067  02.08.2006

@<TRIPOS>MOLECULE
ASD04881053
  76   81    0    0    0
SMALL
NO_CHARGES


@<TRIPOS>ATOM
   1 N1            -0.3332     1.5721     1.2908 N.2     
   2 C2             0.8643     1.8847     0.7253 C.2     
   3 C3             1.3674     3.2389     0.4323 C.2     
   4 O4             2.4619     3.3837    -0.0781 O.2     
   5 C5             1.5102     0.7118     0.4816 C.2     
   6 O6             0.7009    -0.2748     0.8992 O.3     
   7 C7            -0.4174     0.2791     1.3887 C.2     
   8 N8             0.6147     4.3165     0.7300 N.am    
   9 C9             1.1354     5.6052     0.5532 C.ar    
  10 C10            0.2920     6.6552     0.1784 C.ar    
  11 C11            0.8070     7.9341     0.0032 C.ar    
  12 C12            2.1498     8.1719     0.1980 C.ar    
  13 C13            2.9984     7.1270     0.5727 C.ar    
  14 C14            2.4819     5.8406     0.7547 C.ar    
  15 C15            4.4366     7.3818     0.7808 C.2     
  16 O16            5.1743     6.4718     1.1069 O.2     
  17 N17            4.9327     8.6231     0.6096 N.am    
  18 C18            6.3608     8.8762     0.8163 C.3     
  19 N19           -1.0660     6.4193    -0.0200 N.3     
  20 C20           -1.2848     5.5497    -1.1842 C.3     
  21 C21           -2.7796     5.2506    -1.3204 C.3     
  22 N22           -3.5181     6.5130    -1.4635 N.3     
  23 C23           -3.2993     7.3827    -0.2993 C.3     
  24 C24           -1.8045     7.6818    -0.1630 C.3     
  25 C25           -4.8802     6.2764    -1.6625 C.ar    
  26 C26           -5.3172     5.6659    -2.8315 C.ar    
  27 C27           -6.6644     5.4330    -3.0249 C.ar    
  28 C28           -7.5785     5.8071    -2.0566 C.ar    
  29 C29           -7.1469     6.4148    -0.8921 C.ar    
  30 C30           -5.8002     6.6456    -0.6898 C.ar    
  31 C31           -4.3221     5.2589    -3.8875 C.3     
  32 C32           -1.5873    -0.4781     1.9623 C.3     
  33 C33           -2.3070    -1.4678     1.0439 C.3     
  34 C34           -1.4176    -1.9834     2.1771 C.3     
  35 C35            6.5690    10.2272     1.5358 C.3     
  36 C36            7.8429    10.8082     0.8824 C.3     
  37 C37            8.2537     9.7394    -0.1546 C.3     
  38 O38            7.0336     9.0264    -0.4528 O.3     
  39 C39            8.8033    10.4060    -1.4173 C.3     
  40 O40            8.8722    10.9805     1.8585 O.3     
  41 O41            6.7726    10.0230     2.9354 O.3     
  42 H42            2.4874     0.5965     0.0365 H       
  43 H43           -0.2875     4.1999     1.0667 H       
  44 H44            0.1530     8.7433    -0.2867 H       
  45 H45            2.5471     9.1668     0.0607 H       
  46 H46            3.1347     5.0318     1.0483 H       
  47 H47            4.3442     9.3490     0.3495 H       
  48 H48            6.8111     8.0669     1.3910 H       
  49 H49           -0.9308     6.0516    -2.0847 H       
  50 H50           -0.7381     4.6165    -1.0490 H       
  51 H51           -2.9475     4.6294    -2.2002 H       
  52 H52           -3.1276     4.7244    -0.4316 H       
  53 H53           -3.8460     8.3159    -0.4345 H       
  54 H54           -3.6532     6.8807     0.6012 H       
  55 H55           -1.6366     8.3030     0.7167 H       
  56 H56           -1.4564     8.2079    -1.0519 H       
  57 H57           -7.0049     4.9585    -3.9334 H       
  58 H58           -8.6317     5.6244    -2.2107 H       
  59 H59           -7.8633     6.7057    -0.1380 H       
  60 H60           -5.4634     7.1163     0.2220 H       
  61 H61           -4.0429     4.2155    -3.7408 H       
  62 H62           -4.7693     5.3800    -4.8742 H       
  63 H63           -3.4343     5.8867    -3.8115 H       
  64 H64           -2.1923     0.0687     2.6855 H       
  65 H65           -3.3854    -1.5724     1.1631 H       
  66 H66           -1.9343    -1.5712     0.0248 H       
  67 H67           -0.4598    -2.4261     1.9035 H       
  68 H68           -1.9109    -2.4272     3.0418 H       
  69 H69            5.7176    10.8861     1.3649 H       
  70 H70            7.6213    11.7543     0.3885 H       
  71 H71            8.9943     9.0625     0.2713 H       
  72 H72            9.6764    11.0061    -1.1608 H       
  73 H73            9.0883     9.6396    -2.1381 H       
  74 H74            8.0369    11.0472    -1.8527 H       
  75 H75            9.6951    11.3427     1.5026 H       
  76 H76            6.0256     9.6044     3.3846 H       
@<TRIPOS>BOND
   1    1    7 2
   2    1    2 1
   3    2    3 1
   4    2    5 2
   5    3    4 2
   6    3    8 am
   7    5    6 1
   8    5   42 1
   9    6    7 1
  10    7   32 1
  11    8    9 1
  12    8   43 1
  13    9   10 ar
  14    9   14 ar
  15   10   11 ar
  16   10   19 1
  17   11   12 ar
  18   11   44 1
  19   12   13 ar
  20   12   45 1
  21   13   14 ar
  22   13   15 1
  23   14   46 1
  24   15   16 2
  25   15   17 am
  26   17   18 1
  27   17   47 1
  28   18   35 1
  29   18   38 1
  30   18   48 1
  31   19   20 1
  32   19   24 1
  33   20   21 1
  34   20   49 1
  35   20   50 1
  36   21   22 1
  37   21   51 1
  38   21   52 1
  39   22   23 1
  40   22   25 1
  41   23   24 1
  42   23   53 1
  43   23   54 1
  44   24   55 1
  45   24   56 1
  46   25   26 ar
  47   25   30 ar
  48   26   27 ar
  49   26   31 1
  50   27   28 ar
  51   27   57 1
  52   28   29 ar
  53   28   58 1
  54   29   30 ar
  55   29   59 1
  56   30   60 1
  57   31   61 1
  58   31   62 1
  59   31   63 1
  60   32   33 1
  61   32   34 1
  62   32   64 1
  63   33   34 1
  64   33   65 1
  65   33   66 1
  66   34   67 1
  67   34   68 1
  68   35   36 1
  69   35   41 1
  70   35   69 1
  71   36   37 1
  72   36   40 1
  73   36   70 1
  74   37   38 1
  75   37   39 1
  76   37   71 1
  77   39   72 1
  78   39   73 1
  79   39   74 1
  80   40   75 1
  81   41   76 1

#	End of record

