#	Name: ASD00190070
#	Creating user name:	WinNT
#	Creation time:	15. 06. 2019 18:33

#	Modifying user name:	WinNT
#	Modification time:	15. 06. 2019 18:33

#	Program:	/corina/corina34_cracker 3.40 0067  02.08.2006

@<TRIPOS>MOLECULE
ASD00190070
  60   65    0    0    0
SMALL
NO_CHARGES


@<TRIPOS>ATOM
   1 C1             1.6993     1.1977     0.1498 C.3     
   2 N2             1.3664    -0.2323     0.1028 N.3     
   3 C3             1.9782    -0.9522     1.2270 C.3     
   4 C4             1.7331    -2.4543     1.0666 C.3     
   5 C5             0.2255    -2.7191     1.0264 C.3     
   6 C6            -0.3947    -1.9199    -0.1230 C.3     
   7 C7            -0.0879    -0.4333     0.0719 C.3     
   8 C8            -0.0219    -4.1896     0.8085 C.2     
   9 N9            -0.2427    -5.0597     1.7520 N.2     
  10 C10           -0.4244    -6.2852     1.2044 C.ar    
  11 C11           -0.6909    -7.5690     1.7306 C.ar    
  12 N12           -0.8134    -7.7232     3.1022 N.pl3   
  13 C13           -0.9598    -9.0000     3.6515 C.ar    
  14 C14           -0.3309   -10.0885     3.0603 C.ar    
  15 C15           -0.4777   -11.3487     3.6057 C.ar    
  16 C16           -1.2501   -11.5278     4.7387 C.ar    
  17 C17           -1.8779   -10.4465     5.3295 C.ar    
  18 C18           -1.7299    -9.1825     4.7931 C.ar    
  19 N19           -0.8261    -8.6203     0.9546 N.ar    
  20 C20           -0.7225    -8.5551    -0.3808 C.ar    
  21 C21           -0.8746    -9.7035    -1.1727 C.ar    
  22 C22           -0.7654    -9.6125    -2.5282 C.ar    
  23 C23           -0.5041    -8.3939    -3.1459 C.ar    
  24 C24           -0.3500    -7.2570    -2.4074 C.ar    
  25 C25           -0.4567    -7.3164    -1.0141 C.ar    
  26 C26           -0.3017    -6.1326    -0.1806 C.ar    
  27 N27           -0.0540    -4.8064    -0.4045 N.pl3   
  28 H28            0.0765    -4.3839    -1.2678 H       
  29 C29            3.1800     1.3761    -0.0664 C.ar    
  30 C30            4.0418     1.3712     1.0144 C.ar    
  31 C31            5.4001     1.5348     0.8162 C.ar    
  32 C32            5.8965     1.7030    -0.4629 C.ar    
  33 C33            5.0348     1.7071    -1.5438 C.ar    
  34 C34            3.6770     1.5391    -1.3459 C.ar    
  35 H35            1.1520     1.7240    -0.6322 H       
  36 H36            1.4227     1.6034     1.1229 H       
  37 H37            3.0508    -0.7588     1.2416 H       
  38 H38            1.5348    -0.6098     2.1620 H       
  39 H39            2.1882    -2.8002     0.1385 H       
  40 H40            2.1738    -2.9870     1.9092 H       
  41 H41           -0.2240    -2.4090     1.9698 H       
  42 H42            0.0269    -2.2574    -1.0699 H       
  43 H43           -1.4742    -2.0708    -0.1303 H       
  44 H44           -0.5216    -0.0933     1.0123 H       
  45 H45           -0.5159     0.1370    -0.7525 H       
  46 H46           -0.7975    -6.9451     3.6811 H       
  47 H47            0.2718    -9.9494     2.1750 H       
  48 H48            0.0109   -12.1954     3.1466 H       
  49 H49           -1.3636   -12.5145     5.1629 H       
  50 H50           -2.4807   -10.5899     6.2140 H       
  51 H51           -2.2162    -8.3376     5.2580 H       
  52 H52           -1.0775   -10.6576    -0.7090 H       
  53 H53           -0.8831   -10.5002    -3.1319 H       
  54 H54           -0.4219    -8.3471    -4.2218 H       
  55 H55           -0.1470    -6.3157    -2.8964 H       
  56 H56            3.6540     1.2398     2.0138 H       
  57 H57            6.0733     1.5317     1.6607 H       
  58 H58            6.9576     1.8316    -0.6178 H       
  59 H59            5.4227     1.8388    -2.5431 H       
  60 H60            3.0042     1.5385    -2.1907 H       
@<TRIPOS>BOND
   1    1    2 1
   2    1   29 1
   3    1   35 1
   4    1   36 1
   5    2    7 1
   6    2    3 1
   7    3    4 1
   8    3   37 1
   9    3   38 1
  10    4    5 1
  11    4   39 1
  12    4   40 1
  13    5    6 1
  14    5    8 1
  15    5   41 1
  16    6    7 1
  17    6   42 1
  18    6   43 1
  19    7   44 1
  20    7   45 1
  21    8   27 1
  22    8    9 2
  23    9   10 1
  24   10   26 ar
  25   10   11 ar
  26   11   12 1
  27   11   19 ar
  28   12   13 1
  29   12   46 1
  30   13   18 ar
  31   13   14 ar
  32   14   15 ar
  33   14   47 1
  34   15   16 ar
  35   15   48 1
  36   16   17 ar
  37   16   49 1
  38   17   18 ar
  39   17   50 1
  40   18   51 1
  41   19   20 ar
  42   20   25 ar
  43   20   21 ar
  44   21   22 ar
  45   21   52 1
  46   22   23 ar
  47   22   53 1
  48   23   24 ar
  49   23   54 1
  50   24   25 ar
  51   24   55 1
  52   25   26 ar
  53   26   27 1
  54   27   28 1
  55   29   34 ar
  56   29   30 ar
  57   30   31 ar
  58   30   56 1
  59   31   32 ar
  60   31   57 1
  61   32   33 ar
  62   32   58 1
  63   33   34 ar
  64   33   59 1
  65   34   60 1

#	End of record

