#	Name: ASD01911697
#	Creating user name:	WinNT
#	Creation time:	15. 06. 2019 19:58

#	Modifying user name:	WinNT
#	Modification time:	15. 06. 2019 19:58

#	Program:	/corina/corina34_cracker 3.40 0067  02.08.2006

@<TRIPOS>MOLECULE
ASD01911697
  46   48    0    0    0
SMALL
NO_CHARGES


@<TRIPOS>ATOM
   1 N1             0.2429     1.6167     1.2569 N.am    
   2 C2             0.3193     0.3733     0.7427 C.2     
   3 C3             1.5403    -0.4176     0.9165 C.2     
   4 C4             1.5989    -1.7510     1.2203 C.2     
   5 S5             3.1917     0.1792     0.7637 S.3     
   6 C6             3.8056    -1.4299     1.1324 C.2     
   7 N7             2.7994    -2.2460     1.3263 N.2     
   8 C8             5.1894    -1.7910     1.2046 C.1     
   9 C9             6.3239    -2.0870     1.2637 C.1     
  10 C10            7.7078    -2.4481     1.3358 C.ar    
  11 C11            8.0760    -3.7626     1.6381 C.ar    
  12 C12            9.4117    -4.1028     1.7053 C.ar    
  13 C13           10.3859    -3.1454     1.4740 C.ar    
  14 C14           10.0282    -1.8429     1.1743 C.ar    
  15 C15            8.6972    -1.4893     1.0985 C.ar    
  16 O16           -0.6261    -0.0927     0.1339 O.2     
  17 C17           -0.9235     2.4727     0.9922 C.3     
  18 C18            1.3208     2.1514     2.1027 C.3     
  19 C19            1.7347     3.5216     1.5555 C.3     
  20 N20            0.5478     4.3802     1.4452 N.3     
  21 C21           -0.4258     3.8309     0.4864 C.3     
  22 C22            0.9237     5.7547     1.0882 C.3     
  23 C23           -0.3401     6.5942     0.8914 C.3     
  24 O24           -1.0653     6.6588     2.1210 O.3     
  25 C25           -2.2698     7.4240     2.0459 C.3     
  26 Cl26           9.8722    -5.7339     2.0810 Cl      
  27 H27            0.7120    -2.3507     1.3625 H       
  28 H28            7.3172    -4.5096     1.8190 H       
  29 H29           11.4297    -3.4170     1.5282 H       
  30 H30           10.7933    -1.1020     0.9952 H       
  31 H31            8.4200    -0.4720     0.8645 H       
  32 H32           -1.5540     2.0083     0.2340 H       
  33 H33           -1.4927     2.6105     1.9115 H       
  34 H34            0.9635     2.2589     3.1269 H       
  35 H35            2.1748     1.4745     2.0790 H       
  36 H36            2.4546     3.9814     2.2326 H       
  37 H37            2.1874     3.3987     0.5716 H       
  38 H38            0.0532     3.7006    -0.4840 H       
  39 H39           -1.2666     4.5176     0.3883 H       
  40 H40            1.5257     6.1861     1.8879 H       
  41 H41            1.5010     5.7450     0.1636 H       
  42 H42           -0.0625     7.6013     0.5800 H       
  43 H43           -0.9650     6.1361     0.1247 H       
  44 H44           -2.0323     8.4482     1.7585 H       
  45 H45           -2.9347     6.9831     1.3032 H       
  46 H46           -2.7613     7.4244     3.0189 H       
@<TRIPOS>BOND
   1    1    2 am
   2    1   18 1
   3    1   17 1
   4    2    3 1
   5    2   16 2
   6    3    4 2
   7    3    5 1
   8    4    7 1
   9    4   27 1
  10    5    6 1
  11    6    7 2
  12    6    8 1
  13    8    9 3
  14    9   10 1
  15   10   11 ar
  16   10   15 ar
  17   11   12 ar
  18   11   28 1
  19   12   13 ar
  20   12   26 1
  21   13   14 ar
  22   13   29 1
  23   14   15 ar
  24   14   30 1
  25   15   31 1
  26   17   21 1
  27   17   32 1
  28   17   33 1
  29   18   19 1
  30   18   34 1
  31   18   35 1
  32   19   20 1
  33   19   36 1
  34   19   37 1
  35   20   21 1
  36   20   22 1
  37   21   38 1
  38   21   39 1
  39   22   23 1
  40   22   40 1
  41   22   41 1
  42   23   24 1
  43   23   42 1
  44   23   43 1
  45   24   25 1
  46   25   44 1
  47   25   45 1
  48   25   46 1

#	End of record

