#	Name: ASD01200383
#	Creating user name:	WinNT
#	Creation time:	15. 06. 2019 19:09

#	Modifying user name:	WinNT
#	Modification time:	15. 06. 2019 19:09

#	Program:	/corina/corina34_cracker 3.40 0067  02.08.2006

@<TRIPOS>MOLECULE
ASD01200383
  87   90    0    0    0
SMALL
NO_CHARGES


@<TRIPOS>ATOM
   1 N1            -0.4528     1.9508    -0.9097 N.pl3   
   2 C2            -0.4165     0.4866    -0.8771 C.3     
   3 C3            -1.1723    -0.0149     0.3550 C.3     
   4 P4            -1.2027    -0.1744    -2.3831 P.3     
   5 C5             0.6984     2.6721    -1.2474 C.ar    
   6 O6            -1.0469    -1.7766    -2.4109 O.3     
   7 O7            -2.6393     0.1817    -2.3866 O.2     
   8 O8            -0.4903     0.4567    -3.6817 O.3     
   9 C9            -0.9471     0.2162    -5.0142 C.3     
  10 C10           -0.0495     0.9622    -6.0035 C.3     
  11 C11           -1.6490    -2.5999    -3.4117 C.3     
  12 C12           -1.3027    -4.0657    -3.1425 C.3     
  13 C13            1.8959     2.0092    -1.4506 C.ar    
  14 C14            3.0419     2.7326    -1.7878 C.ar    
  15 C15            2.9743     4.1215    -1.9184 C.ar    
  16 C16            1.7780     4.7765    -1.7147 C.ar    
  17 C17            0.6377     4.0590    -1.3848 C.ar    
  18 N18           -2.5642     0.4378     0.2918 N.pl3   
  19 O19           -0.5388     4.7094    -1.1850 O.3     
  20 C20            4.3227     2.0305    -2.0054 C.2     
  21 N21            5.4455     2.6135    -2.3226 N.2     
  22 C22            6.4930     1.8500    -2.4806 C.2     
  23 C23            6.2464     0.5169    -2.2838 C.2     
  24 S24            4.5428     0.3410    -1.8697 S.3     
  25 C25            7.2241    -0.5664    -2.3922 C.2     
  26 C26            7.8522     2.3874    -2.8476 C.3     
  27 O27            6.8447    -1.8421    -2.1713 O.3     
  28 O28            8.3789    -0.3168    -2.6815 O.2     
  29 C29            7.8513    -2.8489    -2.2943 C.3     
  30 C30            7.2375    -4.2212    -2.0099 C.3     
  31 C31           -3.4470     0.1039     1.3039 C.ar    
  32 C32           -4.7872     0.5246     1.2569 C.ar    
  33 N33           -3.0487    -0.6265     2.3401 N.ar    
  34 N34           -5.1457    -0.5747     3.3108 N.ar    
  35 C35           -3.8843    -0.9502     3.3102 C.ar    
  36 N36           -5.5273     1.2522     0.3862 N.2     
  37 C37           -6.7468     1.3495     0.8303 C.2     
  38 N38           -6.8644     0.6885     2.0166 N.pl3   
  39 C39           -5.6361     0.1543     2.3133 C.ar    
  40 C40           -8.0796     0.5703     2.8263 C.3     
  41 C41           -8.0873     1.6631     3.8971 C.3     
  42 C42           -9.4118     1.6186     4.6617 C.3     
  43 O43           -7.0054     1.4477     4.8054 O.3     
  44 C44           -6.5545     2.6331     5.4638 C.3     
  45 P45           -5.5395     3.6183     4.3139 P.3     
  46 O46           -5.1099     4.9978     5.0241 O.3     
  47 O47           -4.2200     2.7864     3.9150 O.3     
  48 O48           -6.3233     3.9147     3.0940 O.2     
  49 H49           -1.2755     2.4203    -0.7012 H       
  50 H50            0.6191     0.1498    -0.8301 H       
  51 H51           -1.1453    -1.1043     0.3792 H       
  52 H52           -0.7022     0.3803     1.2555 H       
  53 H53           -0.9091    -0.8528    -5.2239 H       
  54 H54           -1.9729     0.5702    -5.1160 H       
  55 H55           -0.0874     2.0311    -5.7938 H       
  56 H56            0.9764     0.6081    -5.9016 H       
  57 H57           -0.3979     0.7787    -7.0199 H       
  58 H58           -2.7311    -2.4714    -3.3853 H       
  59 H59           -1.2729    -2.3121    -4.3935 H       
  60 H60           -0.2207    -4.1941    -3.1690 H       
  61 H61           -1.6789    -4.3534    -2.1607 H       
  62 H62           -1.7620    -4.6936    -3.9059 H       
  63 H63            1.9443     0.9351    -1.3483 H       
  64 H64            3.8595     4.6828    -2.1788 H       
  65 H65            1.7280     5.8506    -1.8158 H       
  66 H66           -2.8670     0.9715    -0.4594 H       
  67 H67           -1.0728     4.8110    -1.9848 H       
  68 H68            8.4074     2.6223    -1.9394 H       
  69 H69            8.3962     1.6380    -3.4224 H       
  70 H70            7.7361     3.2909    -3.4463 H       
  71 H71            8.2573    -2.8351    -3.3058 H       
  72 H72            8.6504    -2.6530    -1.5794 H       
  73 H73            8.0053    -4.9892    -2.1037 H       
  74 H74            6.8315    -4.2350    -0.9984 H       
  75 H75            6.4384    -4.4171    -2.7248 H       
  76 H76           -3.5178    -1.5423     4.1359 H       
  77 H77           -7.5474     1.8763     0.3324 H       
  78 H78           -8.9549     0.6824     2.1864 H       
  79 H79           -8.1030    -0.4083     3.3057 H       
  80 H80           -7.9745     2.6378     3.4223 H       
  81 H81           -9.3831     2.3377     5.4804 H       
  82 H82          -10.2298     1.8692     3.9864 H       
  83 H83           -9.5660     0.6170     5.0632 H       
  84 H84           -7.4149     3.2207     5.7838 H       
  85 H85           -5.9569     2.3605     6.3337 H       
  86 H86           -4.5666     5.5736     4.4688 H       
  87 H87           -3.6574     2.5569     4.6672 H       
@<TRIPOS>BOND
   1    1    2 1
   2    1    5 1
   3    1   49 1
   4    2    3 1
   5    2    4 1
   6    2   50 1
   7    3   18 1
   8    3   51 1
   9    3   52 1
  10    4    6 1
  11    4    7 2
  12    4    8 1
  13    5   13 ar
  14    5   17 ar
  15    6   11 1
  16    8    9 1
  17    9   10 1
  18    9   53 1
  19    9   54 1
  20   10   55 1
  21   10   56 1
  22   10   57 1
  23   11   12 1
  24   11   58 1
  25   11   59 1
  26   12   60 1
  27   12   61 1
  28   12   62 1
  29   13   14 ar
  30   13   63 1
  31   14   15 ar
  32   14   20 1
  33   15   16 ar
  34   15   64 1
  35   16   17 ar
  36   16   65 1
  37   17   19 1
  38   18   31 1
  39   18   66 1
  40   19   67 1
  41   20   21 2
  42   20   24 1
  43   21   22 1
  44   22   23 2
  45   22   26 1
  46   23   24 1
  47   23   25 1
  48   25   27 1
  49   25   28 2
  50   26   68 1
  51   26   69 1
  52   26   70 1
  53   27   29 1
  54   29   30 1
  55   29   71 1
  56   29   72 1
  57   30   73 1
  58   30   74 1
  59   30   75 1
  60   31   33 ar
  61   31   32 ar
  62   32   39 ar
  63   32   36 1
  64   33   35 ar
  65   34   35 ar
  66   34   39 ar
  67   35   76 1
  68   36   37 2
  69   37   38 1
  70   37   77 1
  71   38   39 1
  72   38   40 1
  73   40   41 1
  74   40   78 1
  75   40   79 1
  76   41   42 1
  77   41   43 1
  78   41   80 1
  79   42   81 1
  80   42   82 1
  81   42   83 1
  82   43   44 1
  83   44   45 1
  84   44   84 1
  85   44   85 1
  86   45   46 1
  87   45   47 1
  88   45   48 2
  89   46   86 1
  90   47   87 1

#	End of record

