#	Name: ASD01140407
#	Creating user name:	WinNT
#	Creation time:	15. 06. 2019 19:00

#	Modifying user name:	WinNT
#	Modification time:	15. 06. 2019 19:00

#	Program:	/corina/corina34_cracker 3.40 0067  02.08.2006

@<TRIPOS>MOLECULE
ASD01140407
  24   26    0    0    0
SMALL
NO_CHARGES


@<TRIPOS>ATOM
   1 N1            -0.0165     1.3641     0.0095 N.pl3   
   2 C2             0.0021    -0.0041     0.0020 C.2     
   3 C3             1.2698    -0.4448    -0.0124 C.2     
   4 C4             2.1339     0.7386    -0.0143 C.ar    
   5 C5             3.5153     0.9287    -0.0269 C.ar    
   6 C6             4.0258     2.2196    -0.0252 C.ar    
   7 C7             3.1584     3.3174    -0.0106 C.ar    
   8 C8             1.8059     3.1363     0.0017 C.ar    
   9 C9             1.2711     1.8507    -0.0001 C.ar    
  10 C10            5.4931     2.4355    -0.0385 C.ar    
  11 C11            6.0122     3.7332    -0.0369 C.ar    
  12 C12            7.3900     3.8806    -0.0491 C.ar    
  13 C13            8.1698     2.7312    -0.0622 C.ar    
  14 N14            7.5951     1.5425    -0.0628 N.ar    
  15 N15            6.3199     1.3974    -0.0464 N.ar    
  16 Cl16           9.9011     2.8578    -0.0785 Cl      
  17 H17           -0.8181     1.9101     0.0165 H       
  18 H18           -0.8738    -0.6359     0.0075 H       
  19 H19            1.5917    -1.4757    -0.0211 H       
  20 H20            4.1821     0.0791    -0.0375 H       
  21 H21            3.5635     4.3185    -0.0087 H       
  22 H22            1.1482     3.9929     0.0133 H       
  23 H23            5.3600     4.5940    -0.0268 H       
  24 H24            7.8441     4.8604    -0.0488 H       
@<TRIPOS>BOND
   1    1    2 1
   2    1    9 1
   3    1   17 1
   4    2    3 2
   5    2   18 1
   6    3    4 1
   7    3   19 1
   8    4    5 ar
   9    4    9 ar
  10    5    6 ar
  11    5   20 1
  12    6    7 ar
  13    6   10 1
  14    7    8 ar
  15    7   21 1
  16    8    9 ar
  17    8   22 1
  18   10   11 ar
  19   10   15 ar
  20   11   12 ar
  21   11   23 1
  22   12   13 ar
  23   12   24 1
  24   13   14 ar
  25   13   16 1
  26   14   15 ar

#	End of record

