#	Name: ASD01880163
#	Creating user name:	WinNT
#	Creation time:	15. 06. 2019 19:40

#	Modifying user name:	WinNT
#	Modification time:	15. 06. 2019 19:40

#	Program:	/corina/corina34_cracker 3.40 0067  02.08.2006

@<TRIPOS>MOLECULE
ASD01880163
  68   71    0    0    0
SMALL
NO_CHARGES


@<TRIPOS>ATOM
   1 C1            -0.0166     1.3760     0.0096 C.ar    
   2 C2             0.0021    -0.0041     0.0020 C.ar    
   3 C3            -1.1890    -0.7251     0.0090 C.ar    
   4 C4            -2.4008    -0.0696     0.0236 C.ar    
   5 C5            -2.4370     1.3180     0.0318 C.ar    
   6 C6            -1.2395     2.0524     0.0307 C.ar    
   7 O7             1.1911    -0.6636    -0.0128 O.3     
   8 C8             1.1408    -2.0917    -0.0200 C.3     
   9 C9             2.5643    -2.6521    -0.0366 C.3     
  10 C10            2.5105    -4.1812    -0.0443 C.3     
  11 C11            3.9340    -4.7416    -0.0608 C.3     
  12 O12            3.8837    -6.1697    -0.0680 O.3     
  13 C13            5.0714    -6.8285    -0.0828 C.ar    
  14 C14            5.0933    -8.2171    -0.0905 C.ar    
  15 C15            6.2967    -8.8890    -0.1060 C.ar    
  16 C16            7.4940    -8.1723    -0.1140 C.ar    
  17 C17            7.4682    -6.7770    -0.1063 C.ar    
  18 C18            6.2610    -6.1118    -0.0961 C.ar    
  19 C19            8.7876    -8.8898    -0.1302 C.2     
  20 N20            8.9586   -10.1953    -0.1389 N.2     
  21 N21           10.2097   -10.4847    -0.1531 N.2     
  22 N22           10.9197    -9.4089    -0.1545 N.2     
  23 N23           10.0217    -8.3273    -0.1448 N.pl3   
  24 C24            1.2762     2.1503     0.0014 C.3     
  25 C25            1.7000     2.4201    -1.4438 C.3     
  26 C26            3.0125     3.2062    -1.4521 C.3     
  27 N27           -3.4563     2.2519     0.0458 N.pl3   
  28 C28           -2.8770     3.4823     0.0474 C.2     
  29 N29           -1.5809     3.3666     0.0395 N.2     
  30 C30           -4.8936     1.9686     0.0564 C.3     
  31 C31           -5.3574     1.7385     1.4962 C.3     
  32 C32           -5.0784     2.9917     2.3283 C.3     
  33 C33           -6.8585     1.4427     1.5073 C.3     
  34 C34           -4.5991     0.5510     2.0926 C.3     
  35 H35           -1.1628    -1.8047     0.0026 H       
  36 H36           -3.3212    -0.6346     0.0282 H       
  37 H37            0.6229    -2.4415     0.8731 H       
  38 H38            0.6060    -2.4320    -0.9068 H       
  39 H39            3.0822    -2.3023    -0.9297 H       
  40 H40            3.0991    -2.3119     0.8502 H       
  41 H41            1.9926    -4.5310     0.8488 H       
  42 H42            1.9757    -4.5214    -0.9310 H       
  43 H43            4.4519    -4.3918    -0.9539 H       
  44 H44            4.4688    -4.4013     0.8260 H       
  45 H45            4.1662    -8.7712    -0.0840 H       
  46 H46            6.3129    -9.9689    -0.1116 H       
  47 H47            8.3929    -6.2191    -0.1124 H       
  48 H48            6.2402    -5.0320    -0.0905 H       
  49 H49           10.2382    -7.3818    -0.1437 H       
  50 H50            1.1356     3.0978     0.5217 H       
  51 H51            2.0500     1.5708     0.5048 H       
  52 H52            1.8406     1.4727    -1.9641 H       
  53 H53            0.9261     2.9997    -1.9471 H       
  54 H54            3.3144     3.3984    -2.4816 H       
  55 H55            2.8719     4.1537    -0.9318 H       
  56 H56            3.7864     2.6266    -0.9487 H       
  57 H57           -3.4144     4.4191     0.0566 H       
  58 H58           -5.4338     2.8146    -0.3685 H       
  59 H59           -5.0923     1.0758    -0.5364 H       
  60 H60           -5.6186     3.8377     1.9034 H       
  61 H61           -5.4089     2.8278     3.3540 H       
  62 H62           -4.0090     3.2025     2.3204 H       
  63 H63           -7.0572     0.5498     0.9144 H       
  64 H64           -7.1889     1.2787     2.5329 H       
  65 H65           -7.3987     2.2886     1.0823 H       
  66 H66           -3.5297     0.7618     2.0847 H       
  67 H67           -4.9296     0.3871     3.1183 H       
  68 H68           -4.7979    -0.3418     1.4998 H       
@<TRIPOS>BOND
   1    1    2 ar
   2    1   24 1
   3    1    6 ar
   4    2    3 ar
   5    2    7 1
   6    3    4 ar
   7    3   35 1
   8    4    5 ar
   9    4   36 1
  10    5    6 ar
  11    5   27 1
  12    6   29 1
  13    7    8 1
  14    8    9 1
  15    8   37 1
  16    8   38 1
  17    9   10 1
  18    9   39 1
  19    9   40 1
  20   10   11 1
  21   10   41 1
  22   10   42 1
  23   11   12 1
  24   11   43 1
  25   11   44 1
  26   12   13 1
  27   13   14 ar
  28   13   18 ar
  29   14   15 ar
  30   14   45 1
  31   15   16 ar
  32   15   46 1
  33   16   17 ar
  34   16   19 1
  35   17   18 ar
  36   17   47 1
  37   18   48 1
  38   19   20 2
  39   19   23 1
  40   20   21 1
  41   21   22 2
  42   22   23 1
  43   23   49 1
  44   24   25 1
  45   24   50 1
  46   24   51 1
  47   25   26 1
  48   25   52 1
  49   25   53 1
  50   26   54 1
  51   26   55 1
  52   26   56 1
  53   27   28 1
  54   27   30 1
  55   28   29 2
  56   28   57 1
  57   30   31 1
  58   30   58 1
  59   30   59 1
  60   31   32 1
  61   31   33 1
  62   31   34 1
  63   32   60 1
  64   32   61 1
  65   32   62 1
  66   33   63 1
  67   33   64 1
  68   33   65 1
  69   34   66 1
  70   34   67 1
  71   34   68 1

#	End of record

