#	Name: ASD07930137
#	Creating user name:	WinNT
#	Creation time:	15. 06. 2019 21:11

#	Modifying user name:	WinNT
#	Modification time:	15. 06. 2019 21:11

#	Program:	/corina/corina34_cracker 3.40 0067  02.08.2006

@<TRIPOS>MOLECULE
ASD07930137
  61   65    0    0    0
SMALL
NO_CHARGES


@<TRIPOS>ATOM
   1 C1             0.0906     0.9053    -1.2664 C.2     
   2 C2            -0.3469    -0.3783    -0.6745 C.2     
   3 N3             1.2369     0.9230    -2.0284 N.am    
   4 N4             0.5694    -1.3622    -0.5096 N.am    
   5 C5             1.9642    -1.1008    -0.8923 C.3     
   6 C6             1.9690    -0.3356    -2.2241 C.3     
   7 C7            -0.6327     2.0400    -1.0627 C.2     
   8 C8            -0.2215     3.2575    -1.6193 C.2     
   9 C9             0.9190     3.3024    -2.3733 C.2     
  10 C10            1.6767     2.0661    -2.5825 C.2     
  11 O11           -1.5045    -0.5463    -0.3427 O.2     
  12 O12            2.6955     2.0739    -3.2523 O.2     
  13 C13            2.4938     5.1758    -2.6379 C.2     
  14 N14            2.5487     6.2538    -3.3715 N.2     
  15 C15            1.4624     6.3135    -4.1562 C.2     
  16 C16            0.7006     5.2325    -3.9032 C.2     
  17 N17            1.3506     4.5054    -2.9391 N.pl3   
  18 C18            1.1485     7.4028    -5.1492 C.3     
  19 C19            0.1773    -2.6627     0.0395 C.3     
  20 C20           -0.6796    -3.4108    -0.9836 C.3     
  21 C21           -0.6282    -2.4524     1.3231 C.3     
  22 O22           -1.9364    -2.7464    -1.1292 O.3     
  23 O23           -6.4660    -2.5334    -0.1424 O.3     
  24 C24           -6.3178    -1.9388    -1.4429 C.3     
  25 C25           -4.7964    -1.6705    -1.5252 C.3     
  26 C26           -4.2434    -2.7081    -0.5675 C.ar    
  27 C27           -5.3073    -3.1624     0.1990 C.ar    
  28 C28           -5.0734    -4.1430     1.1627 C.ar    
  29 C29           -3.8004    -4.6446     1.3524 C.ar    
  30 C30           -2.7454    -4.1806     0.5896 C.ar    
  31 C31           -2.9691    -3.2072    -0.3748 C.ar    
  32 C32           -4.2758    -1.9041    -2.9448 C.3     
  33 F33           -5.0479    -1.1697    -3.8513 F       
  34 F34           -2.9418    -1.4905    -3.0262 F       
  35 F35           -4.3616    -3.2656    -3.2548 F       
  36 C36           -4.4643    -0.2548    -1.0491 C.3     
  37 F37           -6.0967    -4.6044     1.9145 F       
  38 H38            2.4486    -0.4997    -0.1228 H       
  39 H39            2.4946    -2.0457    -1.0110 H       
  40 H40            1.4776    -0.9317    -2.9931 H       
  41 H41            2.9953    -0.1221    -2.5225 H       
  42 H42           -1.5324     2.0011    -0.4666 H       
  43 H43           -0.8007     4.1541    -1.4548 H       
  44 H44            3.2348     4.8661    -1.9158 H       
  45 H45           -0.2415     4.9854    -4.3700 H       
  46 H46            1.5716     7.1429    -6.1195 H       
  47 H47            0.0677     7.5102    -5.2412 H       
  48 H48            1.5791     8.3432    -4.8052 H       
  49 H49            1.0701    -3.2470     0.2623 H       
  50 H50           -0.1651    -3.4294    -1.9444 H       
  51 H51           -0.8461    -4.4320    -0.6408 H       
  52 H52           -0.8741    -3.4201     1.7604 H       
  53 H53           -0.0370    -1.8730     2.0323 H       
  54 H54           -1.5473    -1.9143     1.0913 H       
  55 H55           -6.6302    -2.6332    -2.2229 H       
  56 H56           -6.8785    -1.0063    -1.5074 H       
  57 H57           -3.6284    -5.4034     2.1014 H       
  58 H58           -1.7511    -4.5734     0.7432 H       
  59 H59           -4.6274    -0.1856     0.0264 H       
  60 H60           -3.4213    -0.0314    -1.2735 H       
  61 H61           -5.1075     0.4609    -1.5610 H       
@<TRIPOS>BOND
   1    1    2 1
   2    1    3 1
   3    1    7 2
   4    2    4 am
   5    2   11 2
   6    3    6 1
   7    3   10 am
   8    4    5 1
   9    4   19 1
  10    5    6 1
  11    5   38 1
  12    5   39 1
  13    6   40 1
  14    6   41 1
  15    7    8 1
  16    7   42 1
  17    8    9 2
  18    8   43 1
  19    9   10 1
  20    9   17 1
  21   10   12 2
  22   13   14 2
  23   13   17 1
  24   13   44 1
  25   14   15 1
  26   15   16 2
  27   15   18 1
  28   16   17 1
  29   16   45 1
  30   18   46 1
  31   18   47 1
  32   18   48 1
  33   19   20 1
  34   19   21 1
  35   19   49 1
  36   20   22 1
  37   20   50 1
  38   20   51 1
  39   21   52 1
  40   21   53 1
  41   21   54 1
  42   22   31 1
  43   23   24 1
  44   23   27 1
  45   24   25 1
  46   24   55 1
  47   24   56 1
  48   25   26 1
  49   25   32 1
  50   25   36 1
  51   26   27 ar
  52   26   31 ar
  53   27   28 ar
  54   28   29 ar
  55   28   37 1
  56   29   30 ar
  57   29   57 1
  58   30   31 ar
  59   30   58 1
  60   32   33 1
  61   32   34 1
  62   32   35 1
  63   36   59 1
  64   36   60 1
  65   36   61 1

#	End of record

