#	Name: ASD03331418
#	Creating user name:	WinNT
#	Creation time:	15. 06. 2019 20:39

#	Modifying user name:	WinNT
#	Modification time:	15. 06. 2019 20:39

#	Program:	/corina/corina34_cracker 3.40 0067  02.08.2006

@<TRIPOS>MOLECULE
ASD03331418
  62   64    0    0    0
SMALL
NO_CHARGES


@<TRIPOS>ATOM
   1 C1             0.6539     0.9655     1.7848 C.ar    
   2 C2             0.5198    -0.4539     1.3907 C.2     
   3 N3            -0.5348    -1.2600     1.6764 N.pl3   
   4 C4            -0.2701    -2.4874     1.1395 C.2     
   5 C5             0.9395    -2.4075     0.5345 C.2     
   6 N6             1.3991    -1.1454     0.7000 N.2     
   7 C7             1.6281    -3.4971    -0.1798 C.2     
   8 N8             2.8351    -3.2793    -0.7385 N.am    
   9 C9            -0.1729     1.4981     2.7744 C.ar    
  10 O10            1.1072    -4.5928    -0.2652 O.2     
  11 C11            3.5197    -4.3625    -1.4486 C.3     
  12 C12            3.0234    -4.4178    -2.8949 C.3     
  13 C13            5.0055    -4.1108    -1.4367 C.2     
  14 C14            3.2326    -3.0550    -3.5583 C.3     
  15 C15           -1.7653    -0.9564     2.4125 C.3     
  16 C16           -2.7892    -2.0565     2.1013 C.3     
  17 O17           -2.1835    -3.3424     2.2587 O.3     
  18 C18           -1.2111    -3.6593     1.2514 C.3     
  19 C19            3.8069    -5.4844    -3.6625 C.3     
  20 C20            1.5344    -4.7692    -2.9100 C.3     
  21 O21            5.4299    -2.9962    -1.2163 O.2     
  22 N22            5.8626    -5.1241    -1.6710 N.am    
  23 C23            7.3062    -4.9046    -1.5530 C.3     
  24 C24           -0.0433     2.8243     3.1385 C.ar    
  25 C25            0.9070     3.6252     2.5209 C.ar    
  26 C26            1.7291     3.0993     1.5377 C.ar    
  27 C27            1.6117     1.7745     1.1721 C.ar    
  28 F28            1.0304     4.9219     2.8794 F       
  29 F29           -0.8428     3.3423     4.0964 F       
  30 C30            7.6397    -4.4605    -0.1274 C.3     
  31 C31            8.0474    -6.2054    -1.8685 C.3     
  32 C32            7.7392    -3.8186    -2.5400 C.3     
  33 H33            3.2506    -2.4055    -0.6704 H       
  34 H34           -0.9129     0.8749     3.2544 H       
  35 H35            3.3079    -5.3112    -0.9554 H       
  36 H36            4.2934    -2.8047    -3.5475 H       
  37 H37            2.8790    -3.0944    -4.5886 H       
  38 H38            2.6744    -2.2952    -3.0113 H       
  39 H39           -1.5591    -0.9373     3.4826 H       
  40 H40           -2.1555     0.0105     2.0946 H       
  41 H41           -3.6344    -1.9683     2.7839 H       
  42 H42           -3.1404    -1.9448     1.0755 H       
  43 H43           -1.7092    -3.8258     0.2962 H       
  44 H44           -0.6568    -4.5522     1.5406 H       
  45 H45            3.6695    -6.4528    -3.1815 H       
  46 H46            3.4435    -5.5338    -4.6890 H       
  47 H47            4.8660    -5.2264    -3.6641 H       
  48 H48            0.9762    -4.0093    -2.3631 H       
  49 H49            1.1808    -4.8085    -3.9403 H       
  50 H50            1.3853    -5.7400    -2.4374 H       
  51 H51            5.5236    -5.9989    -1.9177 H       
  52 H52            2.4667     3.7269     1.0595 H       
  53 H53            2.2535     1.3664     0.4054 H       
  54 H54            7.3313    -5.2341     0.5757 H       
  55 H55            8.7139    -4.2971    -0.0397 H       
  56 H56            7.1117    -3.5338     0.0974 H       
  57 H57            7.8097    -6.5218    -2.8842 H       
  58 H58            9.1215    -6.0420    -1.7808 H       
  59 H59            7.7389    -6.9790    -1.1654 H       
  60 H60            7.2112    -2.8919    -2.3152 H       
  61 H61            8.8133    -3.6553    -2.4522 H       
  62 H62            7.5016    -4.1350    -3.5556 H       
@<TRIPOS>BOND
   1    1    2 1
   2    1    9 ar
   3    1   27 ar
   4    2    3 1
   5    2    6 2
   6    3    4 1
   7    3   15 1
   8    4    5 2
   9    4   18 1
  10    5    6 1
  11    5    7 1
  12    7    8 am
  13    7   10 2
  14    8   11 1
  15    8   33 1
  16    9   24 ar
  17    9   34 1
  18   11   12 1
  19   11   13 1
  20   11   35 1
  21   12   14 1
  22   12   19 1
  23   12   20 1
  24   13   21 2
  25   13   22 am
  26   14   36 1
  27   14   37 1
  28   14   38 1
  29   15   16 1
  30   15   39 1
  31   15   40 1
  32   16   17 1
  33   16   41 1
  34   16   42 1
  35   17   18 1
  36   18   43 1
  37   18   44 1
  38   19   45 1
  39   19   46 1
  40   19   47 1
  41   20   48 1
  42   20   49 1
  43   20   50 1
  44   22   23 1
  45   22   51 1
  46   23   30 1
  47   23   31 1
  48   23   32 1
  49   24   25 ar
  50   24   29 1
  51   25   26 ar
  52   25   28 1
  53   26   27 ar
  54   26   52 1
  55   27   53 1
  56   30   54 1
  57   30   55 1
  58   30   56 1
  59   31   57 1
  60   31   58 1
  61   31   59 1
  62   32   60 1
  63   32   61 1
  64   32   62 1

#	End of record

