#	Name: ASD04590358
#	Creating user name:	WinNT
#	Creation time:	15. 06. 2019 20:50

#	Modifying user name:	WinNT
#	Modification time:	15. 06. 2019 20:50

#	Program:	/corina/corina34_cracker 3.40 0067  02.08.2006

@<TRIPOS>MOLECULE
ASD04590358
  38   41    0    0    0
SMALL
NO_CHARGES


@<TRIPOS>ATOM
   1 C1            -0.0167     1.3834     0.0096 C.ar    
   2 C2             0.0021    -0.0041     0.0020 C.ar    
   3 C3             1.1863    -0.6848    -0.0129 C.ar    
   4 C4             2.3948     0.0191    -0.0207 C.ar    
   5 C5             2.3756     1.4250    -0.0129 C.ar    
   6 C6             1.1624     2.0987     0.0022 C.ar    
   7 N7             3.6952    -0.3636    -0.0351 N.2     
   8 C8             4.4665     0.6967    -0.0368 C.2     
   9 N9             3.6970     1.8290    -0.0233 N.pl3   
  10 C10            5.9437     0.6731    -0.0510 C.2     
  11 C11            6.7565    -0.4840    -0.0654 C.2     
  12 C12            8.0504    -0.0800    -0.0754 C.2     
  13 N13            8.0626     1.2790    -0.0676 N.pl3   
  14 N14            6.7358     1.7273    -0.0581 N.2     
  15 N15            6.3043    -1.8134    -0.0684 N.am    
  16 C16            7.1922    -2.8272    -0.0828 C.2     
  17 C17            6.7198    -4.2158    -0.0859 C.2     
  18 O18            8.3860    -2.5906    -0.0932 O.2     
  19 C19            7.4995    -5.3260    -0.0998 C.2     
  20 N20            6.8303    -6.4516    -0.0988 N.2     
  21 C21            5.5384    -6.3757    -0.0850 C.2     
  22 S22            5.0379    -4.7412    -0.0647 S.3     
  23 C23            9.0053    -5.2687    -0.1159 C.3     
  24 C24            4.6071    -7.5605    -0.0816 C.3     
  25 H25           -0.9614     1.9069     0.0169 H       
  26 H26           -0.9290    -0.5513     0.0083 H       
  27 H27            1.1893    -1.7648    -0.0184 H       
  28 H28            1.1417     3.1785     0.0082 H       
  29 H29            4.0192     2.7439    -0.0212 H       
  30 H30            8.9175    -0.7237    -0.0871 H       
  31 H31            8.8532     1.8410    -0.0716 H       
  32 H32            5.3528    -2.0021    -0.0601 H       
  33 H33            9.3795    -5.2599     0.9078 H       
  34 H34            9.3966    -6.1417    -0.6382 H       
  35 H35            9.3290    -4.3631    -0.6288 H       
  36 H36            4.3932    -7.8515     0.9469 H       
  37 H37            3.6777    -7.2935    -0.5844 H       
  38 H38            5.0769    -8.3934    -0.6046 H       
@<TRIPOS>BOND
   1    1    2 ar
   2    1    6 ar
   3    1   25 1
   4    2    3 ar
   5    2   26 1
   6    3    4 ar
   7    3   27 1
   8    4    5 ar
   9    4    7 1
  10    5    6 ar
  11    5    9 1
  12    6   28 1
  13    7    8 2
  14    8    9 1
  15    8   10 1
  16    9   29 1
  17   10   11 1
  18   10   14 2
  19   11   12 2
  20   11   15 1
  21   12   13 1
  22   12   30 1
  23   13   14 1
  24   13   31 1
  25   15   16 am
  26   15   32 1
  27   16   17 1
  28   16   18 2
  29   17   19 2
  30   17   22 1
  31   19   20 1
  32   19   23 1
  33   20   21 2
  34   21   22 1
  35   21   24 1
  36   23   33 1
  37   23   34 1
  38   23   35 1
  39   24   36 1
  40   24   37 1
  41   24   38 1

#	End of record

