#	Name: ASD01510005
#	Creating user name:	WinNT
#	Creation time:	15. 06. 2019 19:21

#	Modifying user name:	WinNT
#	Modification time:	15. 06. 2019 19:21

#	Program:	/corina/corina34_cracker 3.40 0067  02.08.2006

@<TRIPOS>MOLECULE
ASD01510005
  54   57    0    0    0
SMALL
NO_CHARGES


@<TRIPOS>ATOM
   1 C1             0.0226     1.4136    -0.5196 C.ar    
   2 C2             0.0274     0.0286    -0.5109 C.ar    
   3 C3             1.2225    -0.6453    -0.3401 C.ar    
   4 C4             2.3996     0.0651    -0.1798 C.ar    
   5 C5             2.4152     1.4604    -0.1857 C.ar    
   6 C6             1.1902     2.1230    -0.3606 C.ar    
   7 S7             4.0744    -0.4528     0.0571 S.3     
   8 C8             4.7289     1.1909     0.1390 C.2     
   9 N9             3.6657     2.0250    -0.0144 N.pl3   
  10 Cl10          -1.4542    -0.8534    -0.7121 Cl      
  11 C11            3.8404     3.4795     0.0011 C.3     
  12 C12            6.0546     1.5534     0.3220 C.2     
  13 C13            7.1374     0.7110     0.5854 C.2     
  14 N14            8.3231     1.2783     0.7248 N.am    
  15 C15            8.4005     2.6470     0.6007 C.2     
  16 S16            6.7447     3.1867     0.2648 S.3     
  17 O17            6.9946    -0.4975     0.6832 O.2     
  18 C18            9.5168     0.4759     1.0031 C.3     
  19 C19           10.1672     0.0548    -0.3162 C.3     
  20 C20            9.5131     3.4216     0.7072 C.2     
  21 C21            9.4160     4.8263     0.5505 C.2     
  22 N22           10.4130     5.6712     0.6309 N.2     
  23 C23           10.1264     6.9447     0.4560 C.2     
  24 C24            8.8457     7.2267     0.2159 C.2     
  25 S25            7.9355     5.7178     0.2086 S.3     
  26 C26           11.7807     5.2220     0.9026 C.3     
  27 C27           12.4403     4.8112    -0.3886 C.ar    
  28 C28           13.1407     5.7415    -1.1335 C.ar    
  29 C29           13.7457     5.3648    -2.3179 C.ar    
  30 C30           13.6508     4.0575    -2.7572 C.ar    
  31 C31           12.9512     3.1270    -2.0119 C.ar    
  32 C32           12.3498     3.5027    -0.8253 C.ar    
  33 H33           -0.9087     1.9430    -0.6573 H       
  34 H34            1.2375    -1.7252    -0.3314 H       
  35 H35            1.1642     3.2026    -0.3708 H       
  36 H36            4.4599     3.7800    -0.8438 H       
  37 H37            2.8663     3.9632    -0.0723 H       
  38 H38            4.3248     3.7774     0.9310 H       
  39 H39           10.2243     1.0669     1.5847 H       
  40 H40            9.2340    -0.4121     1.5685 H       
  41 H41            9.4597    -0.5361    -0.8978 H       
  42 H42           10.4500     0.9428    -0.8815 H       
  43 H43           11.0554    -0.5422    -0.1091 H       
  44 H44           10.4708     2.9659     0.9112 H       
  45 H45           10.8829     7.7140     0.5045 H       
  46 H46            8.4363     8.2122     0.0499 H       
  47 H47           12.3467     6.0351     1.3571 H       
  48 H48           11.7552     4.3717     1.5841 H       
  49 H49           13.2149     6.7629    -0.7902 H       
  50 H50           14.2923     6.0918    -2.9002 H       
  51 H51           14.1229     3.7633    -3.6829 H       
  52 H52           12.8767     2.1057    -2.3553 H       
  53 H53           11.8032     2.7757    -0.2430 H       
  54 Cl54          19.2923    13.2122     6.5847 Cl      
@<TRIPOS>BOND
   1    1    2 ar
   2    1    6 ar
   3    1   33 1
   4    2    3 ar
   5    2   10 1
   6    3    4 ar
   7    3   34 1
   8    4    5 ar
   9    4    7 1
  10    5    6 ar
  11    5    9 1
  12    6   35 1
  13    7    8 1
  14    8    9 1
  15    8   12 2
  16    9   11 1
  17   11   36 1
  18   11   37 1
  19   11   38 1
  20   12   13 1
  21   12   16 1
  22   13   14 am
  23   13   17 2
  24   14   15 1
  25   14   18 1
  26   15   16 1
  27   15   20 2
  28   18   19 1
  29   18   39 1
  30   18   40 1
  31   19   41 1
  32   19   42 1
  33   19   43 1
  34   20   21 1
  35   20   44 1
  36   21   22 2
  37   21   25 1
  38   22   23 1
  39   22   26 1
  40   23   24 2
  41   23   45 1
  42   24   25 1
  43   24   46 1
  44   26   27 1
  45   26   47 1
  46   26   48 1
  47   27   28 ar
  48   27   32 ar
  49   28   29 ar
  50   28   49 1
  51   29   30 ar
  52   29   50 1
  53   30   31 ar
  54   30   51 1
  55   31   32 ar
  56   31   52 1
  57   32   53 1

#	End of record

