#	Name: ASD03091302
#	Creating user name:	WinNT
#	Creation time:	15. 06. 2019 20:30

#	Modifying user name:	WinNT
#	Modification time:	15. 06. 2019 20:30

#	Program:	/corina/corina34_cracker 3.40 0067  02.08.2006

@<TRIPOS>MOLECULE
ASD03091302
  51   55    0    0    0
SMALL
NO_CHARGES


@<TRIPOS>ATOM
   1 N1            -0.1117     1.2725    -0.0475 N.2     
   2 C2            -0.0050    -0.0341    -0.0016 C.2     
   3 N3             1.2023    -0.6827     0.0605 N.am    
   4 C4             2.3574     0.0224     0.0769 C.2     
   5 C5             2.2596     1.4884     0.0256 C.ar    
   6 C6             3.3923     2.2996     0.0374 C.ar    
   7 C7             3.2431     3.6751    -0.0132 C.ar    
   8 C8             1.9716     4.2459    -0.0749 C.ar    
   9 C9             0.8524     3.4647    -0.0872 C.ar    
  10 C10            0.9730     2.0719    -0.0370 C.ar    
  11 O11            3.4373    -0.5366     0.1326 O.2     
  12 O12           -1.2985    -2.1821    -0.1143 O.3     
  13 C13           -1.2328    -0.8387    -0.0168 C.2     
  14 C14           -2.5073    -0.3580     0.0652 C.2     
  15 C15           -3.3633    -1.4714     0.0135 C.2     
  16 C16           -2.5828    -2.5675    -0.0963 C.2     
  17 C17           -3.0738    -3.9895    -0.1838 C.3     
  18 C18            1.2414    -2.1463     0.1097 C.3     
  19 N19            7.0740     5.4234    -0.7897 N.3     
  20 C20            6.8251     4.5777     0.3878 C.3     
  21 C21            5.5976     3.7061     0.1734 C.3     
  22 N22            4.3737     4.4972    -0.0018 N.3     
  23 C23            4.4500     5.3047    -1.2273 C.3     
  24 C24            4.9646     6.7012    -0.9117 C.3     
  25 C25            6.4479     6.7403    -0.6039 C.3     
  26 C26            6.7741     4.8335    -2.0767 C.3     
  27 C27            5.2883     4.5692    -2.2568 C.3     
  28 H28            4.3774     1.8596     0.0858 H       
  29 H29            1.8715     5.3206    -0.1131 H       
  30 H30           -0.1251     3.9214    -0.1349 H       
  31 H31           -2.8012     0.6775     0.1532 H       
  32 H32           -4.4424    -1.4536     0.0541 H       
  33 H33           -2.2213    -4.6640    -0.2642 H       
  34 H34           -3.6458    -4.2321     0.7117 H       
  35 H35           -3.7094    -4.1011    -1.0623 H       
  36 H36            1.1824    -2.5456    -0.9028 H       
  37 H37            2.1732    -2.4695     0.5739 H       
  38 H38            0.3978    -2.5129     0.6946 H       
  39 H39            7.6921     3.9404     0.5618 H       
  40 H40            6.6667     5.2131     1.2592 H       
  41 H41            5.7512     3.0921    -0.7140 H       
  42 H42            5.4743     3.0516     1.0363 H       
  43 H43            3.4424     5.3988    -1.6323 H       
  44 H44            4.7680     7.3477    -1.7669 H       
  45 H45            4.4189     7.0886    -0.0513 H       
  46 H46            6.5887     7.0588     0.4290 H       
  47 H47            6.9298     7.4600    -1.2657 H       
  48 H48            7.1106     5.5098    -2.8626 H       
  49 H49            7.3144     3.8913    -2.1682 H       
  50 H50            5.1050     3.4987    -2.1635 H       
  51 H51            4.9892     4.8926    -3.2538 H       
@<TRIPOS>BOND
   1    1    2 2
   2    1   10 1
   3    2    3 1
   4    2   13 1
   5    3    4 am
   6    3   18 1
   7    4    5 1
   8    4   11 2
   9    5    6 ar
  10    5   10 ar
  11    6    7 ar
  12    6   28 1
  13    7    8 ar
  14    7   22 1
  15    8    9 ar
  16    8   29 1
  17    9   10 ar
  18    9   30 1
  19   12   13 1
  20   12   16 1
  21   13   14 2
  22   14   15 1
  23   14   31 1
  24   15   16 2
  25   15   32 1
  26   16   17 1
  27   17   33 1
  28   17   34 1
  29   17   35 1
  30   18   36 1
  31   18   37 1
  32   18   38 1
  33   19   20 1
  34   19   25 1
  35   19   26 1
  36   20   21 1
  37   20   39 1
  38   20   40 1
  39   21   22 1
  40   21   41 1
  41   21   42 1
  42   22   23 1
  43   23   24 1
  44   23   27 1
  45   23   43 1
  46   24   25 1
  47   24   44 1
  48   24   45 1
  49   25   46 1
  50   25   47 1
  51   26   27 1
  52   26   48 1
  53   26   49 1
  54   27   50 1
  55   27   51 1

#	End of record

