#	Name: ASD08150311
#	Creating user name:	WinNT
#	Creation time:	15. 06. 2019 21:15

#	Modifying user name:	WinNT
#	Modification time:	15. 06. 2019 21:15

#	Program:	/corina/corina34_cracker 3.40 0067  02.08.2006

@<TRIPOS>MOLECULE
ASD08150311
  27   28    0    0    0
SMALL
NO_CHARGES


@<TRIPOS>ATOM
   1 N1            -0.0161     1.3348     0.0094 N.pl3   
   2 C2             0.0021    -0.0041     0.0020 C.2     
   3 C3             1.1800    -0.7236    -0.0126 C.2     
   4 C4             2.4584     0.0057    -0.0209 C.2     
   5 C5             2.3935     1.4791    -0.0128 C.ar    
   6 C6             3.5544     2.2524    -0.0197 C.ar    
   7 C7             3.4567     3.6272    -0.0119 C.ar    
   8 C8             2.2106     4.2402     0.0032 C.ar    
   9 C9             1.0568     3.4883     0.0107 C.ar    
  10 C10            1.1320     2.0975     0.0025 C.ar    
  11 C11            1.1580    -2.1932    -0.0194 C.2     
  12 O12            0.0963    -2.7852    -0.0120 O.2     
  13 O13            2.3152    -2.8845    -0.0337 O.3     
  14 O14            3.5253    -0.5829    -0.0334 O.2     
  15 Cl15           4.8970     4.5963    -0.0204 Cl      
  16 C16            2.2175    -4.3332    -0.0396 C.3     
  17 C17            3.6223    -4.9391    -0.0559 C.3     
  18 H18           -0.8740     1.7873     0.0158 H       
  19 H19           -0.9362    -0.5389     0.0081 H       
  20 H20            4.5239     1.7767    -0.0308 H       
  21 H21            2.1456     5.3183     0.0096 H       
  22 H22            0.0937     3.9769     0.0228 H       
  23 H23            1.6889    -4.6654     0.8539 H       
  24 H24            1.6719    -4.6570    -0.9260 H       
  25 H25            4.1509    -4.6069    -0.9494 H       
  26 H26            4.1679    -4.6153     0.8305 H       
  27 H27            3.5490    -6.0266    -0.0603 H       
@<TRIPOS>BOND
   1    1    2 1
   2    1   10 1
   3    1   18 1
   4    2    3 2
   5    2   19 1
   6    3    4 1
   7    3   11 1
   8    4    5 1
   9    4   14 2
  10    5    6 ar
  11    5   10 ar
  12    6    7 ar
  13    6   20 1
  14    7    8 ar
  15    7   15 1
  16    8    9 ar
  17    8   21 1
  18    9   10 ar
  19    9   22 1
  20   11   12 2
  21   11   13 1
  22   13   16 1
  23   16   17 1
  24   16   23 1
  25   16   24 1
  26   17   25 1
  27   17   26 1
  28   17   27 1

#	End of record

