#	Name: ASD02038063
#	Creating user name:	WinNT
#	Creation time:	15. 06. 2019 20:16

#	Modifying user name:	WinNT
#	Modification time:	15. 06. 2019 20:16

#	Program:	/corina/corina34_cracker 3.40 0067  02.08.2006

@<TRIPOS>MOLECULE
ASD02038063
  58   60    0    0    0
SMALL
NO_CHARGES


@<TRIPOS>ATOM
   1 C1            -0.5782     1.6774    -0.1295 C.3     
   2 N2             1.2783     3.2981     0.0838 N.am    
   3 C3             0.8806     2.0108     0.0487 C.2     
   4 C4             2.0760     6.7931     2.3764 C.3     
   5 O5             1.3130     7.9718     2.1107 O.3     
   6 C6             1.3445     8.9527     3.0518 C.ar    
   7 C7             0.6264    10.1235     2.8573 C.ar    
   8 C8             2.0902     8.7799     4.2087 C.ar    
   9 C9             2.1219     9.7754     5.1653 C.ar    
  10 C10            1.4077    10.9495     4.9687 C.ar    
  11 C11            0.6581    11.1201     3.8126 C.ar    
  12 O12            1.6968     1.1207     0.1604 O.2     
  13 N13            1.4391    11.9600     5.9393 N.am    
  14 C14           -0.7545     0.1808    -0.1347 C.ar    
  15 C15            2.5699    12.1910     6.6353 C.2     
  16 N16            2.6296    13.2222     7.5010 N.am    
  17 O17            3.5362    11.4690     6.4823 O.2     
  18 C18            3.8588    13.4733     8.2576 C.3     
  19 C19           -0.6815    -0.5194    -1.3247 C.ar    
  20 C20            2.6970     3.6388     0.2569 C.3     
  21 C21            2.8317     4.6036     1.4392 C.3     
  22 C22            1.9183     5.8107     1.2141 C.3     
  23 C23            0.4630     5.3437     1.1351 C.3     
  24 C24            0.3022     4.3872    -0.0563 C.3     
  25 C25           -0.9834    -0.4920     1.0508 C.ar    
  26 C26           -1.1448    -1.8649     1.0467 C.ar    
  27 C27           -1.0775    -2.5654    -0.1443 C.ar    
  28 C28           -0.8436    -1.8918    -1.3302 C.ar    
  29 Cl29          -1.2800    -4.2895    -0.1502 Cl      
  30 C30           -0.7707    -2.6541    -2.6281 C.3     
  31 H31           -1.1521     2.1080     0.6910 H       
  32 H32           -0.9319     2.0883    -1.0751 H       
  33 H33            3.1273     7.0583     2.4879 H       
  34 H34            1.7189     6.3287     3.2956 H       
  35 H35            0.0428    10.2557     1.9582 H       
  36 H36            2.6458     7.8664     4.3615 H       
  37 H37            2.7020     9.6404     6.0662 H       
  38 H38            0.1023    12.0333     3.6591 H       
  39 H39            0.6470    12.4932     6.1102 H       
  40 H40            1.8588    13.7982     7.6231 H       
  41 H41            4.0933    12.6021     8.8692 H       
  42 H42            4.6792    13.6627     7.5654 H       
  43 H43            3.7184    14.3419     8.9010 H       
  44 H44           -0.4982     0.0063    -2.2501 H       
  45 H45            3.2686     2.7327     0.4578 H       
  46 H46            3.0713     4.1162    -0.6487 H       
  47 H47            2.5422     4.0948     2.3587 H       
  48 H48            3.8656     4.9395     1.5187 H       
  49 H49            2.1923     6.3045     0.2818 H       
  50 H50            0.1959     4.8280     2.0575 H       
  51 H51           -0.1890     6.2064     0.9981 H       
  52 H52            0.4809     4.9279    -0.9857 H       
  53 H53           -0.7065     3.9741    -0.0596 H       
  54 H54           -1.0359     0.0550     1.9805 H       
  55 H55           -1.3229    -2.3905     1.9731 H       
  56 H56           -1.7651    -2.7143    -3.0705 H       
  57 H57           -0.0982    -2.1395    -3.3145 H       
  58 H58           -0.3960    -3.6599    -2.4382 H       
@<TRIPOS>BOND
   1    1   14 1
   2    1    3 1
   3    1   31 1
   4    1   32 1
   5    2    3 am
   6    2   20 1
   7    2   24 1
   8    3   12 2
   9    4    5 1
  10    4   22 1
  11    4   33 1
  12    4   34 1
  13    5    6 1
  14    6    7 ar
  15    6    8 ar
  16    7   11 ar
  17    7   35 1
  18    8    9 ar
  19    8   36 1
  20    9   10 ar
  21    9   37 1
  22   10   11 ar
  23   10   13 1
  24   11   38 1
  25   13   15 am
  26   13   39 1
  27   14   25 ar
  28   14   19 ar
  29   15   16 am
  30   15   17 2
  31   16   18 1
  32   16   40 1
  33   18   41 1
  34   18   42 1
  35   18   43 1
  36   19   28 ar
  37   19   44 1
  38   20   21 1
  39   20   45 1
  40   20   46 1
  41   21   22 1
  42   21   47 1
  43   21   48 1
  44   22   23 1
  45   22   49 1
  46   23   24 1
  47   23   50 1
  48   23   51 1
  49   24   52 1
  50   24   53 1
  51   25   26 ar
  52   25   54 1
  53   26   27 ar
  54   26   55 1
  55   27   28 ar
  56   27   29 1
  57   28   30 1
  58   30   56 1
  59   30   57 1
  60   30   58 1

#	End of record

