#	Name: ASD09610041
#	Creating user name:	WinNT
#	Creation time:	15. 06. 2019 21:22

#	Modifying user name:	WinNT
#	Modification time:	15. 06. 2019 21:22

#	Program:	/corina/corina34_cracker 3.40 0067  02.08.2006

@<TRIPOS>MOLECULE
ASD09610041
  59   63    0    0    0
SMALL
NO_CHARGES


@<TRIPOS>ATOM
   1 C1            -0.0184     1.5028     0.0103 C.2     
   2 C2             0.0021    -0.0041     0.0020 C.3     
   3 N3             1.1395     2.1925     0.0030 N.am    
   4 C4             1.1358     3.6617     0.0109 C.3     
   5 C5             1.9843     4.1633    -1.1618 C.3     
   6 C6             3.3788     3.5379    -1.0815 C.3     
   7 C7             3.2636     2.0153    -1.1850 C.3     
   8 C8             2.4296     1.4894    -0.0070 C.3     
   9 S9             3.8620     3.8575    -3.8721 S.3     
  10 C10            4.2272     4.0554    -2.2144 C.2     
  11 N11            5.3261     4.7079    -2.0673 N.2     
  12 C12            5.9535     5.0944    -3.1718 C.2     
  13 C13            5.3250     4.7337    -4.3143 C.2     
  14 O14            9.0605     6.9459    -3.8583 O.3     
  15 N15            7.8752     6.2516    -4.1931 N.2     
  16 C16            7.2196     5.8486    -3.1547 C.2     
  17 C17            7.9773     6.2857    -1.9155 C.3     
  18 C18            8.9574     7.3437    -2.4761 C.3     
  19 C19           10.2957     7.2570    -1.7887 C.ar    
  20 C20           10.6217     8.1601    -0.7943 C.ar    
  21 C21           11.8493     8.0806    -0.1637 C.ar    
  22 C22           12.7507     7.0976    -0.5273 C.ar    
  23 C23           12.4243     6.1939    -1.5211 C.ar    
  24 C24           11.1950     6.2708    -2.1486 C.ar    
  25 N25           -1.3723    -0.5112     0.0124 N.pl3   
  26 N26           -2.1561    -0.7908    -1.1144 N.2     
  27 C27           -3.3209    -1.2239    -0.7050 C.2     
  28 C28           -3.3162    -1.2339     0.6937 C.2     
  29 C29           -2.1048    -0.7969     1.1092 C.2     
  30 C30           -4.4693    -1.6396    -1.5878 C.3     
  31 F31           -4.0655    -1.6020    -2.9267 F       
  32 F32           -4.8653    -2.9398    -1.2564 F       
  33 F33           -5.5431    -0.7628    -1.3998 F       
  34 C34           -1.6556    -0.6515     2.5403 C.3     
  35 O35           -1.0768     2.0948     0.0185 O.2     
  36 H36            0.5123    -0.3556    -0.8948 H       
  37 H37            0.5293    -0.3651     0.8851 H       
  38 H38            0.1137     4.0251    -0.0959 H       
  39 H39            1.5582     4.0231     0.9485 H       
  40 H40            1.5112     3.8780    -2.1014 H       
  41 H41            2.0690     5.2488    -1.1115 H       
  42 H42            3.8416     3.8032    -0.1309 H       
  43 H43            2.7785     1.7502    -2.1244 H       
  44 H44            4.2588     1.5720    -1.1513 H       
  45 H45            2.9554     1.6773     0.9292 H       
  46 H46            2.2615     0.4190    -0.1256 H       
  47 H47            5.6608     4.9448    -5.3188 H       
  48 H48            7.3015     6.7323    -1.1862 H       
  49 H49            8.5208     5.4479    -1.4787 H       
  50 H50            8.5401     8.3469    -2.3890 H       
  51 H51            9.9175     8.9281    -0.5102 H       
  52 H52           12.1043     8.7867     0.6127 H       
  53 H53           13.7101     7.0360    -0.0352 H       
  54 H54           13.1286     5.4262    -1.8054 H       
  55 H55           10.9385     5.5624    -2.9225 H       
  56 H56           -4.1334    -1.5408     1.3296 H       
  57 H57           -1.9029     0.3476     2.8990 H       
  58 H58           -2.1613    -1.3945     3.1571 H       
  59 H59           -0.5778    -0.8026     2.5999 H       
@<TRIPOS>BOND
   1    1    2 1
   2    1    3 am
   3    1   35 2
   4    2   25 1
   5    2   36 1
   6    2   37 1
   7    3    4 1
   8    3    8 1
   9    4    5 1
  10    4   38 1
  11    4   39 1
  12    5    6 1
  13    5   40 1
  14    5   41 1
  15    6    7 1
  16    6   10 1
  17    6   42 1
  18    7    8 1
  19    7   43 1
  20    7   44 1
  21    8   45 1
  22    8   46 1
  23    9   10 1
  24    9   13 1
  25   10   11 2
  26   11   12 1
  27   12   13 2
  28   12   16 1
  29   13   47 1
  30   14   15 1
  31   14   18 1
  32   15   16 2
  33   16   17 1
  34   17   18 1
  35   17   48 1
  36   17   49 1
  37   18   19 1
  38   18   50 1
  39   19   20 ar
  40   19   24 ar
  41   20   21 ar
  42   20   51 1
  43   21   22 ar
  44   21   52 1
  45   22   23 ar
  46   22   53 1
  47   23   24 ar
  48   23   54 1
  49   24   55 1
  50   25   26 1
  51   25   29 1
  52   26   27 2
  53   27   28 1
  54   27   30 1
  55   28   29 2
  56   28   56 1
  57   29   34 1
  58   30   31 1
  59   30   32 1
  60   30   33 1
  61   34   57 1
  62   34   58 1
  63   34   59 1

#	End of record

