#	Name: ASD02038698
#	Creating user name:	WinNT
#	Creation time:	15. 06. 2019 20:17

#	Modifying user name:	WinNT
#	Modification time:	15. 06. 2019 20:17

#	Program:	/corina/corina34_cracker 3.40 0067  02.08.2006

@<TRIPOS>MOLECULE
ASD02038698
  43   45    0    0    0
SMALL
NO_CHARGES


@<TRIPOS>ATOM
   1 C1             0.0067     1.7020    -0.6584 C.2     
   2 S2             0.0174    -0.0343    -0.3589 S.3     
   3 C3             1.7976    -0.3541    -0.4270 C.3     
   4 C4             2.0579    -1.8427    -0.1876 C.3     
   5 C5             3.5659    -2.0925    -0.1210 C.3     
   6 O6             3.8078    -3.4595     0.2177 O.3     
   7 C7             5.1064    -3.8501     0.3184 C.ar    
   8 C8             6.7306    -5.5605     0.7470 C.ar    
   9 C9             5.4120    -5.1633     0.6441 C.ar    
  10 O10            1.4960    -2.6028    -1.2593 O.3     
  11 C11            7.7504    -4.6453     0.5235 C.ar    
  12 N12            9.0889    -5.0478     0.6278 N.am    
  13 C13            9.4528    -6.2853     0.2372 C.2     
  14 N14           10.7529    -6.6406     0.2489 N.am    
  15 C15            6.1248    -2.9365     0.0899 C.ar    
  16 N16            1.0720     2.4380    -0.8599 N.2     
  17 N17           -1.1140     2.4812    -0.7211 N.pl3   
  18 C18           -0.6982     3.7790    -0.9727 C.ar    
  19 C19            0.7028     3.7309    -1.0583 C.ar    
  20 C20           -1.3616     4.9853    -1.1384 C.ar    
  21 C21           -0.6419     6.1375    -1.3840 C.ar    
  22 C22            0.7441     6.0962    -1.4662 C.ar    
  23 C23            1.4179     4.9048    -1.3087 C.ar    
  24 Cl24          -1.4740     7.6468    -1.5917 Cl      
  25 Cl25           1.6329     7.5548    -1.7763 Cl      
  26 C26            7.4438    -3.3325     0.1921 C.ar    
  27 O27            8.6083    -7.0812    -0.1258 O.2     
  28 H28            2.1803    -0.0714    -1.4077 H       
  29 H29            2.3015     0.2311     0.3422 H       
  30 H30            1.5976    -2.1454     0.7529 H       
  31 H31            4.0136    -1.8737    -1.0905 H       
  32 H32            4.0080    -1.4465     0.6375 H       
  33 H33            6.9685    -6.5819     1.0053 H       
  34 H34            4.6186    -5.8753     0.8176 H       
  35 H35            1.8599    -2.3857    -2.1286 H       
  36 H36            9.7533    -4.4357     0.9811 H       
  37 H37           11.4266    -6.0056     0.5385 H       
  38 H38           11.0148    -7.5312    -0.0322 H       
  39 H39            5.8862    -1.9153    -0.1682 H       
  40 H40           -2.0300     2.1818    -0.6101 H       
  41 H41           -2.4391     5.0233    -1.0758 H       
  42 H42            2.4957     4.8793    -1.3734 H       
  43 H43            8.2367    -2.6210     0.0145 H       
@<TRIPOS>BOND
   1    1    2 1
   2    1   16 2
   3    1   17 1
   4    2    3 1
   5    3    4 1
   6    3   28 1
   7    3   29 1
   8    4    5 1
   9    4   10 1
  10    4   30 1
  11    5    6 1
  12    5   31 1
  13    5   32 1
  14    6    7 1
  15    7    9 ar
  16    7   15 ar
  17    8   11 ar
  18    8    9 ar
  19    8   33 1
  20    9   34 1
  21   10   35 1
  22   11   12 1
  23   11   26 ar
  24   12   13 am
  25   12   36 1
  26   13   14 am
  27   13   27 2
  28   14   37 1
  29   14   38 1
  30   15   26 ar
  31   15   39 1
  32   16   19 1
  33   17   18 1
  34   17   40 1
  35   18   19 ar
  36   18   20 ar
  37   19   23 ar
  38   20   21 ar
  39   20   41 1
  40   21   22 ar
  41   21   24 1
  42   22   23 ar
  43   22   25 1
  44   23   42 1
  45   26   43 1

#	End of record

