#	Name: ASD09890076
#	Creating user name:	WinNT
#	Creation time:	15. 06. 2019 21:24

#	Modifying user name:	WinNT
#	Modification time:	15. 06. 2019 21:24

#	Program:	/corina/corina34_cracker 3.40 0067  02.08.2006

@<TRIPOS>MOLECULE
ASD09890076
  42   45    0    0    0
SMALL
NO_CHARGES


@<TRIPOS>ATOM
   1 C1            -0.0176     1.3671     0.0631 C.2     
   2 N2            -0.0054    -0.0002     0.0335 N.pl3   
   3 C3            -1.2996    -0.4352     0.1155 C.2     
   4 N4            -2.0760     0.6192     0.1924 N.2     
   5 N5            -1.2621     1.7591     0.1648 N.2     
   6 S6            -1.8303    -2.1154     0.1166 S.3     
   7 C7            -3.6340    -1.9736     0.2471 C.3     
   8 C8             1.1337    -0.8132    -0.0639 C.ar    
   9 C9             2.0768    -0.8327     0.9594 C.ar    
  10 C10            3.1851    -1.6521     0.8178 C.ar    
  11 C11            3.3170    -2.4173    -0.3257 C.ar    
  12 N12            2.4051    -2.3757    -1.2776 N.ar    
  13 C13            1.3337    -1.6144    -1.1799 C.ar    
  14 C14           -4.2816    -3.3650     0.1363 C.3     
  15 C15           -5.0398    -3.6047     1.4582 C.3     
  16 C16           -5.3172    -2.1806     2.0006 C.3     
  17 C17           -4.0214    -1.4162     1.6324 C.3     
  18 O18            1.0702     2.1752     0.0035 O.3     
  19 C19            0.8650     3.5152    -0.0919 C.ar    
  20 C20           -0.4172     4.0098    -0.2837 C.ar    
  21 C21            1.9366     4.3910     0.0080 C.ar    
  22 C22            1.7257     5.7527    -0.0893 C.ar    
  23 C23            0.4473     6.2434    -0.2863 C.ar    
  24 C24           -0.6234     5.3722    -0.3805 C.ar    
  25 Br25           0.1618     8.1080    -0.4191 Br      
  26 H26           -4.0148    -1.3209    -0.5385 H       
  27 H27            1.9482    -0.2237     1.8421 H       
  28 H28            3.9374    -1.6922     1.5917 H       
  29 H29            4.1789    -3.0578    -0.4415 H       
  30 H30            0.6086    -1.6067    -1.9802 H       
  31 H31           -4.9772    -3.3874    -0.7025 H       
  32 H32           -3.5120    -4.1255     0.0042 H       
  33 H33           -5.9760    -4.1307     1.2711 H       
  34 H34           -4.4195    -4.1651     2.1577 H       
  35 H35           -6.1807    -1.7392     1.5030 H       
  36 H36           -5.4607    -2.1998     3.0809 H       
  37 H37           -3.2366    -1.6232     2.3600 H       
  38 H38           -4.2143    -0.3451     1.5723 H       
  39 H39           -1.2532     3.3301    -0.3577 H       
  40 H40            2.9347     4.0084     0.1621 H       
  41 H41            2.5594     6.4347    -0.0113 H       
  42 H42           -1.6205     5.7574    -0.5347 H       
@<TRIPOS>BOND
   1    1    2 1
   2    1   18 1
   3    1    5 2
   4    2    3 1
   5    2    8 1
   6    3    4 2
   7    3    6 1
   8    4    5 1
   9    6    7 1
  10    7   14 1
  11    7   17 1
  12    7   26 1
  13    8    9 ar
  14    8   13 ar
  15    9   10 ar
  16    9   27 1
  17   10   11 ar
  18   10   28 1
  19   11   12 ar
  20   11   29 1
  21   12   13 ar
  22   13   30 1
  23   14   15 1
  24   14   31 1
  25   14   32 1
  26   15   16 1
  27   15   33 1
  28   15   34 1
  29   16   17 1
  30   16   35 1
  31   16   36 1
  32   17   37 1
  33   17   38 1
  34   18   19 1
  35   19   20 ar
  36   19   21 ar
  37   20   24 ar
  38   20   39 1
  39   21   22 ar
  40   21   40 1
  41   22   23 ar
  42   22   41 1
  43   23   24 ar
  44   23   25 1
  45   24   42 1

#	End of record

