#	Name: ASD01580006
#	Creating user name:	WinNT
#	Creation time:	15. 06. 2019 19:22

#	Modifying user name:	WinNT
#	Modification time:	15. 06. 2019 19:22

#	Program:	/corina/corina34_cracker 3.40 0067  02.08.2006

@<TRIPOS>MOLECULE
ASD01580006
  16   16    0    0    0
SMALL
NO_CHARGES


@<TRIPOS>ATOM
   1 C1            -0.0171     1.4108     0.0098 C.2     
   2 C2             0.0021    -0.0041     0.0020 C.2     
   3 C3             1.1829    -0.6646    -0.0128 C.2     
   4 C4             1.2028    -2.1316    -0.0209 C.2     
   5 N5             0.1185    -2.9496    -0.0154 N.2     
   6 C6             0.5211    -4.1874    -0.0265 C.2     
   7 N7             1.8794    -4.2134    -0.0396 N.pl3   
   8 C8             2.3166    -2.9253    -0.0413 C.2     
   9 O9             1.0283     2.0335     0.0032 O.2     
  10 O10           -1.1950     2.0697     0.0190 O.3     
  11 H11           -0.9258    -0.5567     0.0079 H       
  12 H12            2.1107    -0.1119    -0.0187 H       
  13 H13           -0.1220    -5.0551    -0.0255 H       
  14 H14            2.4368    -5.0072    -0.0490 H       
  15 H15            3.3443    -2.5935    -0.0543 H       
  16 H16           -1.1069     3.0327     0.0238 H       
@<TRIPOS>BOND
   1    1    2 1
   2    1    9 2
   3    1   10 1
   4    2    3 2
   5    2   11 1
   6    3    4 1
   7    3   12 1
   8    4    5 1
   9    4    8 2
  10    5    6 2
  11    6    7 1
  12    6   13 1
  13    7    8 1
  14    7   14 1
  15    8   15 1
  16   10   16 1

#	End of record

