#	Name: ASD07300506
#	Creating user name:	WinNT
#	Creation time:	15. 06. 2019 21:09

#	Modifying user name:	WinNT
#	Modification time:	15. 06. 2019 21:09

#	Program:	/corina/corina34_cracker 3.40 0067  02.08.2006

@<TRIPOS>MOLECULE
ASD07300506
  40   44    0    0    0
SMALL
NO_CHARGES


@<TRIPOS>ATOM
   1 C1            -0.4228     1.2692    -0.7280 C.ar    
   2 C2            -0.4931    -0.0935    -0.9967 C.ar    
   3 C3             0.6469    -0.8659    -0.9760 C.ar    
   4 C4             1.8564    -0.2469    -0.6813 C.ar    
   5 C5             1.8659     1.1095    -0.4227 C.ar    
   6 N6             0.7563     1.8187    -0.4510 N.ar    
   7 N7            -1.6919     1.8369    -0.8006 N.am    
   8 C8            -1.9461    -0.4018    -1.2682 C.3     
   9 C9            -2.6394     0.9347    -1.1065 C.2     
  10 O10           -3.8259     1.1511    -1.2341 O.2     
  11 C11           -1.9521     3.1969    -0.5790 C.ar    
  12 C12           -3.2509     3.6793    -0.6720 C.ar    
  13 C13           -3.5072     5.0181    -0.4538 C.ar    
  14 C14           -2.4660     5.8825    -0.1413 C.ar    
  15 C15           -1.1669     5.3997    -0.0482 C.ar    
  16 C16           -0.9118     4.0598    -0.2609 C.ar    
  17 N17           -2.7256     7.2402     0.0795 N.pl3   
  18 O18           -4.3352     8.9095     0.7515 O.3     
  19 C19           -3.9379     7.6334     0.6022 C.2     
  20 N20           -4.8712     6.8198     1.0259 N.2     
  21 C21           -5.9241     7.5579     1.4723 C.ar    
  22 C22           -5.5747     8.9052     1.2937 C.ar    
  23 C23           -7.1651     7.2328     2.0208 C.ar    
  24 C24           -8.0368     8.2371     2.3824 C.ar    
  25 C25           -7.6878     9.5665     2.2038 C.ar    
  26 C26           -6.4626     9.9020     1.6629 C.ar    
  27 H27            0.6024    -1.9249    -1.1830 H       
  28 H28            2.7730    -0.8174    -0.6548 H       
  29 H29            2.8012     1.5983    -0.1930 H       
  30 H30           -2.0730    -0.7847    -2.2808 H       
  31 H31           -2.3285    -1.1152    -0.5381 H       
  32 H32           -4.0605     3.0072    -0.9154 H       
  33 H33           -4.5173     5.3934    -0.5266 H       
  34 H34           -0.3571     6.0718     0.1945 H       
  35 H35            0.0976     3.6836    -0.1843 H       
  36 H36           -2.0519     7.9041    -0.1355 H       
  37 H37           -7.4417     6.1983     2.1611 H       
  38 H38           -8.9977     7.9867     2.8070 H       
  39 H39           -8.3790    10.3454     2.4901 H       
  40 H40           -6.1972    10.9401     1.5273 H       
@<TRIPOS>BOND
   1    1    2 ar
   2    1    6 ar
   3    1    7 1
   4    2    3 ar
   5    2    8 1
   6    3    4 ar
   7    3   27 1
   8    4    5 ar
   9    4   28 1
  10    5    6 ar
  11    5   29 1
  12    7    9 am
  13    7   11 1
  14    8    9 1
  15    8   30 1
  16    8   31 1
  17    9   10 2
  18   11   12 ar
  19   11   16 ar
  20   12   13 ar
  21   12   32 1
  22   13   14 ar
  23   13   33 1
  24   14   15 ar
  25   14   17 1
  26   15   16 ar
  27   15   34 1
  28   16   35 1
  29   17   19 1
  30   17   36 1
  31   18   19 1
  32   18   22 1
  33   19   20 2
  34   20   21 1
  35   21   22 ar
  36   21   23 ar
  37   22   26 ar
  38   23   24 ar
  39   23   37 1
  40   24   25 ar
  41   24   38 1
  42   25   26 ar
  43   25   39 1
  44   26   40 1

#	End of record

