#	Name: ASD01911237
#	Creating user name:	WinNT
#	Creation time:	15. 06. 2019 19:57

#	Modifying user name:	WinNT
#	Modification time:	15. 06. 2019 19:57

#	Program:	/corina/corina34_cracker 3.40 0067  02.08.2006

@<TRIPOS>MOLECULE
ASD01911237
  43   46    0    0    0
SMALL
NO_CHARGES


@<TRIPOS>ATOM
   1 C1            -0.2321     0.9789     0.0366 C.3     
   2 C2             0.2531    -0.4667    -0.1103 C.3     
   3 N3             1.1726    -0.7714     0.9945 N.am    
   4 C4             2.3206     0.1166     1.2235 C.3     
   5 C5             1.8121     1.5557     1.3554 C.3     
   6 C6             0.9774     1.9125     0.1233 C.3     
   7 C7             0.9668    -1.8448     1.7830 C.2     
   8 O8             1.7872    -2.1457     2.6241 O.2     
   9 C9            -0.2828    -2.6712     1.6197 C.3     
  10 C10           -0.3676    -3.8587     2.5931 C.3     
  11 C11           -1.8636    -3.5330     2.7365 C.3     
  12 C12           -1.5060    -2.0888     2.3474 C.3     
  13 C13            3.0270    -0.2878     2.4917 C.2     
  14 N14            4.2313    -0.7944     2.5838 N.2     
  15 C15            4.4399    -0.9974     3.9042 C.2     
  16 N16            3.3610    -0.6062     4.5301 N.2     
  17 O17            2.5446    -0.1917     3.7346 O.3     
  18 C18            5.6648    -1.5601     4.5266 C.ar    
  19 C19            5.7303    -1.7093     5.9092 C.ar    
  20 C20            6.8794    -2.2357     6.4757 C.ar    
  21 C21            7.9250    -2.5953     5.6385 C.ar    
  22 C22            7.7914    -2.4194     4.2726 C.ar    
  23 N23            6.6853    -1.9215     3.7602 N.ar    
  24 H24           -0.8387     1.2486    -0.8280 H       
  25 H25           -0.8292     1.0718     0.9438 H       
  26 H26           -0.6000    -1.1441    -0.0730 H       
  27 H27            0.7732    -0.5827    -1.0611 H       
  28 H28            3.0092     0.0481     0.3814 H       
  29 H29            1.1958     1.6432     2.2501 H       
  30 H30            2.6606     2.2359     1.4295 H       
  31 H31            1.5873     1.8009    -0.7732 H       
  32 H32            0.6349     2.9442     0.2031 H       
  33 H33           -0.4784    -2.9422     0.5822 H       
  34 H34           -0.1738    -4.8230     2.1233 H       
  35 H35            0.2012    -3.7121     3.5113 H       
  36 H36           -2.4929    -4.0393     2.0045 H       
  37 H37           -2.2360    -3.6310     3.7562 H       
  38 H38           -1.2484    -1.4584     3.1985 H       
  39 H39           -2.2312    -1.6243     1.6793 H       
  40 H40            4.8968    -1.4183     6.5314 H       
  41 H41            6.9595    -2.3629     7.5452 H       
  42 H42            8.8347    -3.0083     6.0488 H       
  43 H43            8.6037    -2.6979     3.6177 H       
@<TRIPOS>BOND
   1    1    2 1
   2    1    6 1
   3    1   24 1
   4    1   25 1
   5    2    3 1
   6    2   26 1
   7    2   27 1
   8    3    4 1
   9    3    7 am
  10    4    5 1
  11    4   13 1
  12    4   28 1
  13    5    6 1
  14    5   29 1
  15    5   30 1
  16    6   31 1
  17    6   32 1
  18    7    8 2
  19    7    9 1
  20    9   10 1
  21    9   12 1
  22    9   33 1
  23   10   11 1
  24   10   34 1
  25   10   35 1
  26   11   12 1
  27   11   36 1
  28   11   37 1
  29   12   38 1
  30   12   39 1
  31   13   14 2
  32   13   17 1
  33   14   15 1
  34   15   16 2
  35   15   18 1
  36   16   17 1
  37   18   19 ar
  38   18   23 ar
  39   19   20 ar
  40   19   40 1
  41   20   21 ar
  42   20   41 1
  43   21   22 ar
  44   21   42 1
  45   22   23 ar
  46   22   43 1

#	End of record

