#	Name: ASD01910457
#	Creating user name:	WinNT
#	Creation time:	15. 06. 2019 19:55

#	Modifying user name:	WinNT
#	Modification time:	15. 06. 2019 19:55

#	Program:	/corina/corina34_cracker 3.40 0067  02.08.2006

@<TRIPOS>MOLECULE
ASD01910457
  44   47    0    0    0
SMALL
NO_CHARGES


@<TRIPOS>ATOM
   1 C1            -0.8521     1.9263     1.0560 C.2     
   2 C2            -0.8685     0.4949     0.6911 C.2     
   3 N3            -1.8830    -0.3770     0.9004 N.2     
   4 C4            -1.4661    -1.5226     0.4231 C.2     
   5 O5            -0.2335    -1.3262    -0.0558 O.3     
   6 N6             0.0938    -0.1686     0.0988 N.2     
   7 C7            -2.2323    -2.8203     0.4154 C.3     
   8 C8            -2.4166    -3.2961    -1.0275 C.3     
   9 C9            -3.2230    -4.5968    -1.0384 C.3     
  10 C10           -2.4550    -5.6755    -0.2679 C.3     
  11 N11           -2.1469    -5.1678     1.0760 N.am    
  12 C12           -1.4531    -3.8788     1.2023 C.3     
  13 C13           -2.4940    -5.8711     2.1720 C.2     
  14 C14           -3.2645    -7.1238     2.0324 C.ar    
  15 O15           -2.1730    -5.4747     3.2755 O.2     
  16 C16           -2.8383    -8.1134     1.1440 C.ar    
  17 C17           -3.5607    -9.2805     1.0180 C.ar    
  18 C18           -4.7088    -9.4728     1.7714 C.ar    
  19 C19           -5.1367    -8.4934     2.6545 C.ar    
  20 C20           -4.4186    -7.3249     2.7926 C.ar    
  21 F21           -5.4132   -10.6186     1.6440 F       
  22 C22            0.1733     2.7932     0.8406 C.2     
  23 C23           -0.2396     4.0425     1.3421 C.2     
  24 C24           -1.4841     3.8790     1.8340 C.2     
  25 O25           -1.8527     2.6012     1.6547 O.3     
  26 C26           -2.3241     4.9541     2.4741 C.3     
  27 H27           -3.2085    -2.6691     0.8761 H       
  28 H28           -2.9494    -2.5338    -1.5960 H       
  29 H29           -1.4404    -3.4702    -1.4799 H       
  30 H30           -4.1898    -4.4295    -0.5638 H       
  31 H31           -3.3739    -4.9227    -2.0675 H       
  32 H32           -3.0678    -6.5734    -0.1877 H       
  33 H33           -1.5281    -5.9087    -0.7919 H       
  34 H34           -0.4445    -3.9655     0.7983 H       
  35 H35           -1.4048    -3.5913     2.2526 H       
  36 H36           -1.9444    -7.9644     0.5566 H       
  37 H37           -3.2322   -10.0463     0.3311 H       
  38 H38           -6.0318    -8.6481     3.2387 H       
  39 H39           -4.7526    -6.5628     3.4810 H       
  40 H40            1.1214     2.5670     0.3754 H       
  41 H41            0.3327     4.9584     1.3346 H       
  42 H42           -2.9210     5.4521     1.7100 H       
  43 H43           -2.9846     4.5056     3.2161 H       
  44 H44           -1.6741     5.6824     2.9593 H       
@<TRIPOS>BOND
   1    1    2 1
   2    1   22 2
   3    1   25 1
   4    2    3 1
   5    2    6 2
   6    3    4 2
   7    4    5 1
   8    4    7 1
   9    5    6 1
  10    7    8 1
  11    7   12 1
  12    7   27 1
  13    8    9 1
  14    8   28 1
  15    8   29 1
  16    9   10 1
  17    9   30 1
  18    9   31 1
  19   10   11 1
  20   10   32 1
  21   10   33 1
  22   11   12 1
  23   11   13 am
  24   12   34 1
  25   12   35 1
  26   13   14 1
  27   13   15 2
  28   14   16 ar
  29   14   20 ar
  30   16   17 ar
  31   16   36 1
  32   17   18 ar
  33   17   37 1
  34   18   19 ar
  35   18   21 1
  36   19   20 ar
  37   19   38 1
  38   20   39 1
  39   22   23 1
  40   22   40 1
  41   23   24 2
  42   23   41 1
  43   24   25 1
  44   24   26 1
  45   26   42 1
  46   26   43 1
  47   26   44 1

#	End of record

