#	Name: ASD01900466
#	Creating user name:	WinNT
#	Creation time:	15. 06. 2019 19:52

#	Modifying user name:	WinNT
#	Modification time:	15. 06. 2019 19:52

#	Program:	/corina/corina34_cracker 3.40 0067  02.08.2006

@<TRIPOS>MOLECULE
ASD01900466
  71   76    0    0    0
SMALL
NO_CHARGES


@<TRIPOS>ATOM
   1 C1             0.5259     0.6906     0.9589 C.ar    
   2 C2             0.7298    -0.6589     0.8961 C.ar    
   3 C3             1.9883    -1.1719     0.5839 C.ar    
   4 C4             3.0556    -0.3151     0.3397 C.ar    
   5 C5             2.8609     1.0509     0.4066 C.ar    
   6 C6             1.5842     1.5639     0.7077 C.ar    
   7 N7             3.8995     1.9499     0.1908 N.pl3   
   8 C8             3.5846     3.2821    -0.3376 C.3     
   9 N9             2.4021     3.8264     0.3306 N.am    
  10 C10            1.4081     3.0230     0.7580 C.2     
  11 C11            2.3017     5.2089     0.5308 C.ar    
  12 C12            3.0131     5.8156     1.5575 C.ar    
  13 C13            2.9139     7.1788     1.7540 C.ar    
  14 C14            2.1039     7.9422     0.9260 C.ar    
  15 C15            1.3925     7.3367    -0.0995 C.ar    
  16 C16            1.4951     5.9745    -0.3008 C.ar    
  17 C17            1.1645    10.0105     0.2225 C.3     
  18 O18            2.0068     9.2845     1.1201 O.3     
  19 O19            0.3725     3.5011     1.1811 O.2     
  20 N20            2.1769    -2.5482     0.5169 N.3     
  21 C21            3.2486    -2.9780     1.4269 C.3     
  22 C22            3.4629    -4.4866     1.2777 C.3     
  23 O23            2.2305    -5.1657     1.5335 O.3     
  24 C24            1.1650    -4.7717     0.6648 C.3     
  25 C25            0.9274    -3.2661     0.8078 C.3     
  26 C26            4.7771     4.2136    -0.1000 C.3     
  27 C27            3.3201     3.1806    -1.8423 C.3     
  28 C28            3.0624     4.5802    -2.4053 C.3     
  29 N29            4.2295     5.4344    -2.1517 N.3     
  30 C30            4.4759     5.5838    -0.7118 C.3     
  31 C31            4.0733     6.7445    -2.7977 C.3     
  32 C32            5.2381     7.6276    -2.4307 C.ar    
  33 C33            6.3823     7.6186    -3.2059 C.ar    
  34 C34            7.4523     8.4275    -2.8710 C.ar    
  35 C35            7.3782     9.2476    -1.7590 C.ar    
  36 C36            6.2298     9.2570    -0.9814 C.ar    
  37 C37            5.1587     8.4501    -1.3223 C.ar    
  38 F38            8.4235    10.0380    -1.4308 F       
  39 F39            6.1553    10.0566     0.1050 F       
  40 F40           -0.1520     9.5536     0.3458 F       
  41 F41            1.2162    11.3734     0.5340 F       
  42 F42            1.6048     9.8153    -1.0909 F       
  43 H43           -0.4527     1.0800     1.1978 H       
  44 H44           -0.0906    -1.3340     1.0903 H       
  45 H45            4.0300    -0.7145     0.0998 H       
  46 H46            4.8163     1.7008     0.3865 H       
  47 H47            3.6435     5.2214     2.2024 H       
  48 H48            3.4669     7.6508     2.5526 H       
  49 H49            0.7618     7.9316    -0.7435 H       
  50 H50            0.9450     5.5039    -1.1023 H       
  51 H51            4.1706    -2.4530     1.1771 H       
  52 H52            2.9663    -2.7504     2.4548 H       
  53 H53            3.7970    -4.7083     0.2641 H       
  54 H54            4.2168    -4.8194     1.9911 H       
  55 H55            1.4323    -5.0017    -0.3666 H       
  56 H56            0.2569    -5.3108     0.9350 H       
  57 H57            0.6080    -3.0430     1.8258 H       
  58 H58            0.1549    -2.9512     0.1061 H       
  59 H59            4.9463     4.3225     0.9712 H       
  60 H60            5.6666     3.7931    -0.5690 H       
  61 H61            4.1883     2.7440    -2.3358 H       
  62 H62            2.4470     2.5518    -2.0168 H       
  63 H63            2.8881     4.5131    -3.4792 H       
  64 H64            2.1855     5.0104    -1.9215 H       
  65 H65            3.5930     6.0086    -0.2343 H       
  66 H66            5.3273     6.2462    -0.5558 H       
  67 H67            4.0424     6.6148    -3.8795 H       
  68 H68            3.1459     7.2076    -2.4607 H       
  69 H69            6.4408     6.9787    -4.0740 H       
  70 H70            8.3462     8.4190    -3.4771 H       
  71 H71            4.2622     8.4597    -0.7201 H       
@<TRIPOS>BOND
   1    1    2 ar
   2    1    6 ar
   3    1   43 1
   4    2    3 ar
   5    2   44 1
   6    3    4 ar
   7    3   20 1
   8    4    5 ar
   9    4   45 1
  10    5    7 1
  11    5    6 ar
  12    6   10 1
  13    7    8 1
  14    7   46 1
  15    8    9 1
  16    8   27 1
  17    8   26 1
  18    9   10 am
  19    9   11 1
  20   10   19 2
  21   11   12 ar
  22   11   16 ar
  23   12   13 ar
  24   12   47 1
  25   13   14 ar
  26   13   48 1
  27   14   15 ar
  28   14   18 1
  29   15   16 ar
  30   15   49 1
  31   16   50 1
  32   17   18 1
  33   17   40 1
  34   17   41 1
  35   17   42 1
  36   20   25 1
  37   20   21 1
  38   21   22 1
  39   21   51 1
  40   21   52 1
  41   22   23 1
  42   22   53 1
  43   22   54 1
  44   23   24 1
  45   24   25 1
  46   24   55 1
  47   24   56 1
  48   25   57 1
  49   25   58 1
  50   26   30 1
  51   26   59 1
  52   26   60 1
  53   27   28 1
  54   27   61 1
  55   27   62 1
  56   28   29 1
  57   28   63 1
  58   28   64 1
  59   29   30 1
  60   29   31 1
  61   30   65 1
  62   30   66 1
  63   31   32 1
  64   31   67 1
  65   31   68 1
  66   32   33 ar
  67   32   37 ar
  68   33   34 ar
  69   33   69 1
  70   34   35 ar
  71   34   70 1
  72   35   36 ar
  73   35   38 1
  74   36   37 ar
  75   36   39 1
  76   37   71 1

#	End of record

