#	Name: ASD09790013
#	Creating user name:	WinNT
#	Creation time:	15. 06. 2019 21:24

#	Modifying user name:	WinNT
#	Modification time:	15. 06. 2019 21:24

#	Program:	/corina/corina34_cracker 3.40 0067  02.08.2006

@<TRIPOS>MOLECULE
ASD09790013
  49   52    0    0    0
SMALL
NO_CHARGES


@<TRIPOS>ATOM
   1 C1             0.1292     1.2973    -0.8212 C.2     
   2 C2            -0.3050     1.1871    -2.2313 C.ar    
   3 C3             0.6304     1.4591    -3.2418 C.ar    
   4 O4             1.8986     1.8047    -2.9423 O.3     
   5 C5             2.2559     2.2038    -1.7050 C.ar    
   6 C6             1.4216     1.9699    -0.5974 C.ar    
   7 C7            -1.6103     0.8243    -2.5549 C.ar    
   8 C8            -1.9838     0.7364    -3.8791 C.ar    
   9 C9            -1.0644     1.0081    -4.8806 C.ar    
  10 C10            0.2306     1.3661    -4.5711 C.ar    
  11 C11            1.8131     2.3722     0.6858 C.ar    
  12 C12            3.4649     2.8567    -1.5103 C.ar    
  13 C13            3.8439     3.2598    -0.2391 C.ar    
  14 C14            3.0244     3.0180     0.8571 C.ar    
  15 O15           -0.5419     0.8639     0.0978 O.2     
  16 O16            1.0103     2.1307     1.7525 O.3     
  17 O17            5.0289     3.8984    -0.0631 O.3     
  18 C18            5.0858     5.1946    -0.4288 C.2     
  19 C19            6.3681     5.9206    -0.3736 C.ar    
  20 O20            4.0805     5.7647    -0.8040 O.2     
  21 C21            7.5264     5.2645     0.0524 C.ar    
  22 C22            8.7268     5.9475     0.1032 C.ar    
  23 C23            6.4286     7.2646    -0.7525 C.ar    
  24 C24            7.6317     7.9426    -0.6997 C.ar    
  25 C25            8.7830     7.2880    -0.2695 C.ar    
  26 O26            9.9645     7.9572    -0.2181 O.3     
  27 C27           10.2790     8.6255     1.0053 C.3     
  28 O28            7.6913     9.2504    -1.0682 O.3     
  29 O29            9.8542     5.3098     0.5180 O.3     
  30 C30            9.7240     3.9351     0.8857 C.3     
  31 C31            6.4724     9.8592    -1.4992 C.3     
  32 H32           -2.3252     0.6128    -1.7734 H       
  33 H33           -2.9942     0.4550    -4.1368 H       
  34 H34           -1.3660     0.9382    -5.9153 H       
  35 H35            0.9357     1.5751    -5.3620 H       
  36 H36            4.1130     3.0511    -2.3521 H       
  37 H37            3.3334     3.3341     1.8426 H       
  38 H38            1.1753     1.2815     2.1847 H       
  39 H39            7.4833     4.2249     0.3418 H       
  40 H40            5.5360     7.7727    -1.0866 H       
  41 H41           11.2466     9.1185     0.9116 H       
  42 H42            9.5116     9.3690     1.2207 H       
  43 H43           10.3185     7.8986     1.8166 H       
  44 H44            9.0165     3.8449     1.7099 H       
  45 H45            9.3615     3.3633     0.0315 H       
  46 H46           10.6947     3.5485     1.1962 H       
  47 H47            6.6597    10.9000    -1.7634 H       
  48 H48            6.0883     9.3269    -2.3693 H       
  49 H49            5.7396     9.8151    -0.6935 H       
@<TRIPOS>BOND
   1    1    2 1
   2    1    6 1
   3    1   15 2
   4    2    3 ar
   5    2    7 ar
   6    3    4 1
   7    3   10 ar
   8    4    5 1
   9    5   12 ar
  10    5    6 ar
  11    6   11 ar
  12    7    8 ar
  13    7   32 1
  14    8    9 ar
  15    8   33 1
  16    9   10 ar
  17    9   34 1
  18   10   35 1
  19   11   14 ar
  20   11   16 1
  21   12   13 ar
  22   12   36 1
  23   13   14 ar
  24   13   17 1
  25   14   37 1
  26   16   38 1
  27   17   18 1
  28   18   19 1
  29   18   20 2
  30   19   23 ar
  31   19   21 ar
  32   21   22 ar
  33   21   39 1
  34   22   29 1
  35   22   25 ar
  36   23   24 ar
  37   23   40 1
  38   24   25 ar
  39   24   28 1
  40   25   26 1
  41   26   27 1
  42   27   41 1
  43   27   42 1
  44   27   43 1
  45   28   31 1
  46   29   30 1
  47   30   44 1
  48   30   45 1
  49   30   46 1
  50   31   47 1
  51   31   48 1
  52   31   49 1

#	End of record

