#	Name: ASD01470058
#	Creating user name:	WinNT
#	Creation time:	15. 06. 2019 19:21

#	Modifying user name:	WinNT
#	Modification time:	15. 06. 2019 19:21

#	Program:	/corina/corina34_cracker 3.40 0067  02.08.2006

@<TRIPOS>MOLECULE
ASD01470058
  21   22    0    0    0
SMALL
NO_CHARGES


@<TRIPOS>ATOM
   1 O1            -0.0162     1.3432     0.0094 O.3     
   2 C2             0.0021    -0.0041     0.0020 C.2     
   3 O3             1.0623    -0.5971    -0.0113 O.2     
   4 C4            -1.2657    -0.7592     0.0101 C.ar    
   5 C5            -2.4906    -0.0674     0.0255 C.ar    
   6 C6            -3.6695    -0.7396     0.0327 C.ar    
   7 C7            -3.6788    -2.1467     0.0252 C.ar    
   8 C8            -2.4517    -2.8571     0.0097 C.ar    
   9 C9            -1.2412    -2.1462    -0.0034 C.ar    
  10 Br10           0.4080    -3.0710    -0.0249 Br      
  11 C11           -2.4687    -4.2633     0.0028 C.ar    
  12 C12           -3.6594    -4.9226     0.0111 C.ar    
  13 C13           -4.8652    -4.2242     0.0264 C.ar    
  14 C14           -4.8872    -2.8629     0.0334 C.ar    
  15 H15            0.8393     1.7939     0.0037 H       
  16 H16           -2.4928     1.0126     0.0320 H       
  17 H17           -4.6015    -0.1940     0.0445 H       
  18 H18           -1.5417    -4.8172    -0.0094 H       
  19 H19           -3.6699    -6.0025     0.0054 H       
  20 H20           -5.7964    -4.7711     0.0327 H       
  21 H21           -5.8298    -2.3359     0.0459 H       
@<TRIPOS>BOND
   1    1    2 1
   2    1   15 1
   3    2    3 2
   4    2    4 1
   5    4    5 ar
   6    4    9 ar
   7    5    6 ar
   8    5   16 1
   9    6    7 ar
  10    6   17 1
  11    7    8 ar
  12    7   14 ar
  13    8    9 ar
  14    8   11 ar
  15    9   10 1
  16   11   12 ar
  17   11   18 1
  18   12   13 ar
  19   12   19 1
  20   13   14 ar
  21   13   20 1
  22   14   21 1

#	End of record

