#	Name: ASD01000065
#	Creating user name:	WinNT
#	Creation time:	15. 06. 2019 18:54

#	Modifying user name:	WinNT
#	Modification time:	15. 06. 2019 18:54

#	Program:	/corina/corina34_cracker 3.40 0067  02.08.2006

@<TRIPOS>MOLECULE
ASD01000065
  48   50    0    0    0
SMALL
NO_CHARGES


@<TRIPOS>ATOM
   1 C1             0.1310     1.3576    -0.1418 C.ar    
   2 C2             0.8220     0.2344     0.2731 C.ar    
   3 C3             0.6080    -0.9814    -0.3501 C.ar    
   4 C4            -0.2971    -1.0763    -1.3891 C.ar    
   5 C5            -0.9923     0.0494    -1.8071 C.ar    
   6 C6            -0.7758     1.2678    -1.1804 C.ar    
   7 C7             1.3634    -2.2036     0.1045 C.3     
   8 C8             2.1509    -2.7659    -1.0508 C.ar    
   9 C9             3.4390    -2.3244    -1.2892 C.ar    
  10 C10            4.1614    -2.8401    -2.3489 C.ar    
  11 C11            3.5959    -3.7977    -3.1700 C.ar    
  12 C12            2.3082    -4.2399    -2.9311 C.ar    
  13 C13            1.5873    -3.7273    -1.8687 C.ar    
  14 S14            2.4975    -1.7496     1.4454 S.3     
  15 C15            1.3732    -1.3026     2.7970 C.3     
  16 C16            2.1836    -0.7629     3.9772 C.3     
  17 N17            1.2732    -0.4009     5.0717 N.3     
  18 C18            0.3889    -3.2408     0.6002 C.ar    
  19 C19            0.8464    -4.4798     1.0082 C.ar    
  20 C20           -0.9617    -2.9512     0.6524 C.ar    
  21 C21           -1.8556    -3.9026     1.1072 C.ar    
  22 C22           -1.3988    -5.1437     1.5093 C.ar    
  23 C23           -0.0475    -5.4312     1.4629 C.ar    
  24 O24           -1.8831    -0.0414    -2.8294 O.3     
  25 C25           -2.3732    -6.1807     2.0056 C.3     
  26 H26            0.2969     2.3051     0.3492 H       
  27 H27            1.5304     0.3067     1.0851 H       
  28 H28           -0.4634    -2.0259    -1.8759 H       
  29 H29           -1.3159     2.1454    -1.5037 H       
  30 H30            3.8808    -1.5762    -0.6477 H       
  31 H31            5.1675    -2.4946    -2.5356 H       
  32 H32            4.1601    -4.2001    -3.9984 H       
  33 H33            1.8662    -4.9877    -3.5727 H       
  34 H34            0.5812    -4.0727    -1.6820 H       
  35 H35            0.6781    -0.5367     2.4531 H       
  36 H36            0.8154    -2.1844     3.1122 H       
  37 H37            2.8788    -1.5288     4.3211 H       
  38 H38            2.7415     0.1189     3.6619 H       
  39 H39            1.7847    -0.0414     5.8636 H       
  40 H40            0.5779     0.2605     4.7599 H       
  41 H41            1.9021    -4.7047     0.9713 H       
  42 H42           -1.3186    -1.9815     0.3382 H       
  43 H43           -2.9107    -3.6760     1.1486 H       
  44 H44            0.3094    -6.4009     1.7772 H       
  45 H45           -2.7843    -0.2507    -2.5484 H       
  46 H46           -2.7214    -6.7831     1.1666 H       
  47 H47           -1.8796    -6.8237     2.7344 H       
  48 H48           -3.2233    -5.6854     2.4748 H       
@<TRIPOS>BOND
   1    1    2 ar
   2    1    6 ar
   3    1   26 1
   4    2    3 ar
   5    2   27 1
   6    3    4 ar
   7    3    7 1
   8    4    5 ar
   9    4   28 1
  10    5    6 ar
  11    5   24 1
  12    6   29 1
  13    7    8 1
  14    7   14 1
  15    7   18 1
  16    8    9 ar
  17    8   13 ar
  18    9   10 ar
  19    9   30 1
  20   10   11 ar
  21   10   31 1
  22   11   12 ar
  23   11   32 1
  24   12   13 ar
  25   12   33 1
  26   13   34 1
  27   14   15 1
  28   15   16 1
  29   15   35 1
  30   15   36 1
  31   16   17 1
  32   16   37 1
  33   16   38 1
  34   17   39 1
  35   17   40 1
  36   18   19 ar
  37   18   20 ar
  38   19   23 ar
  39   19   41 1
  40   20   21 ar
  41   20   42 1
  42   21   22 ar
  43   21   43 1
  44   22   23 ar
  45   22   25 1
  46   23   44 1
  47   24   45 1
  48   25   46 1
  49   25   47 1
  50   25   48 1

#	End of record

