#	Name: ASD01148890
#	Creating user name:	WinNT
#	Creation time:	15. 06. 2019 19:03

#	Modifying user name:	WinNT
#	Modification time:	15. 06. 2019 19:03

#	Program:	/corina/corina34_cracker 3.40 0067  02.08.2006

@<TRIPOS>MOLECULE
ASD01148890
  41   43    0    0    0
SMALL
NO_CHARGES


@<TRIPOS>ATOM
   1 C1            -0.4571     0.2907    -0.4679 C.ar    
   2 C2            -0.1352    -1.0540    -0.4505 C.ar    
   3 C3             1.1841    -1.4484    -0.3421 C.ar    
   4 C4             2.1874    -0.4931    -0.2506 C.ar    
   5 C5             1.8611     0.8563    -0.2683 C.ar    
   6 C6             0.5400     1.2445    -0.3769 C.ar    
   7 S7            -2.1406     0.7899    -0.6136 S.o2    
   8 O8            -2.1239     2.1066    -1.1477 O.2     
   9 O9            -2.8275    -0.2904    -1.2304 O.2     
  10 N10           -2.7492     0.9156     0.9214 N.am    
  11 C11           -2.2195     1.9274     1.8388 C.3     
  12 N12            3.5268    -0.8901    -0.1401 N.pl3   
  13 C13            4.4995    -0.7042    -1.0918 C.2     
  14 C14            5.6617    -1.2264    -0.6090 C.2     
  15 C15            5.3907    -1.7435     0.6687 C.2     
  16 C16            4.0853    -1.5213     0.9341 C.2     
  17 C17            3.3657    -1.9078     2.2006 C.3     
  18 C18            4.3177    -0.0534    -2.4067 C.ar    
  19 C19            5.4198     0.4580    -3.0937 C.ar    
  20 C20            5.2439     1.0637    -4.3205 C.ar    
  21 C21            3.9771     1.1653    -4.8703 C.ar    
  22 C22            2.8799     0.6602    -4.1932 C.ar    
  23 C23            3.0440     0.0468    -2.9687 C.ar    
  24 Cl24           3.7636     1.9294    -6.4144 Cl      
  25 H25           -0.9161    -1.7966    -0.5214 H       
  26 H26            1.4348    -2.4988    -0.3282 H       
  27 H27            2.6394     1.6017    -0.1970 H       
  28 H28            0.2855     2.2940    -0.3911 H       
  29 H29           -3.4565     0.3192     1.2130 H       
  30 H30           -2.3718     2.9192     1.4131 H       
  31 H31           -2.7387     1.8587     2.7947 H       
  32 H32           -1.1537     1.7573     1.9913 H       
  33 H33            6.6156    -1.2403    -1.1154 H       
  34 H34            6.1002    -2.2278     1.3234 H       
  35 H35            2.9557    -2.9120     2.0936 H       
  36 H36            4.0652    -1.8881     3.0363 H       
  37 H37            2.5559    -1.2027     2.3880 H       
  38 H38            6.4082     0.3800    -2.6655 H       
  39 H39            6.0959     1.4598    -4.8530 H       
  40 H40            1.8942     0.7426    -4.6269 H       
  41 H41            2.1881    -0.3508    -2.4436 H       
@<TRIPOS>BOND
   1    1    2 ar
   2    1    6 ar
   3    1    7 1
   4    2    3 ar
   5    2   25 1
   6    3    4 ar
   7    3   26 1
   8    4    5 ar
   9    4   12 1
  10    5    6 ar
  11    5   27 1
  12    6   28 1
  13    7    8 2
  14    7    9 2
  15    7   10 am
  16   10   11 1
  17   10   29 1
  18   11   30 1
  19   11   31 1
  20   11   32 1
  21   12   13 1
  22   12   16 1
  23   13   14 2
  24   13   18 1
  25   14   15 1
  26   14   33 1
  27   15   16 2
  28   15   34 1
  29   16   17 1
  30   17   35 1
  31   17   36 1
  32   17   37 1
  33   18   19 ar
  34   18   23 ar
  35   19   20 ar
  36   19   38 1
  37   20   21 ar
  38   20   39 1
  39   21   22 ar
  40   21   24 1
  41   22   23 ar
  42   22   40 1
  43   23   41 1

#	End of record

