#	Name: ASD01914486
#	Creating user name:	WinNT
#	Creation time:	15. 06. 2019 20:03

#	Modifying user name:	WinNT
#	Modification time:	15. 06. 2019 20:03

#	Program:	/corina/corina34_cracker 3.40 0067  02.08.2006

@<TRIPOS>MOLECULE
ASD01914486
  63   68    0    0    0
SMALL
NO_CHARGES


@<TRIPOS>ATOM
   1 C1            -0.0167     1.3835     0.0096 C.ar    
   2 C2             0.0021    -0.0041     0.0020 C.ar    
   3 N3             1.1507    -0.6498    -0.0124 N.ar    
   4 C4             2.2942     0.0300    -0.0196 C.ar    
   5 C5             2.2718     1.4238    -0.0119 C.ar    
   6 N6             1.1159     2.0634     0.0025 N.ar    
   7 C7             3.5876    -0.6921    -0.0354 C.2     
   8 O8             4.6311    -0.0695    -0.0420 O.2     
   9 N9             3.6070    -2.0397    -0.0423 N.am    
  10 C10            5.6946    -2.3790     1.1858 C.3     
  11 C11            4.8860    -2.7539    -0.0579 C.3     
  12 C12            4.6281    -4.2620    -0.0631 C.3     
  13 C13            5.9639    -5.0078    -0.0793 C.3     
  14 C14            6.7725    -4.6329     1.1644 C.3     
  15 C15            7.0304    -3.1248     1.1696 C.3     
  16 C16           -1.2934    -0.7739     0.0107 C.3     
  17 C17            5.6712    -2.3664    -1.3126 C.3     
  18 C18            7.0071    -3.1122    -1.3288 C.3     
  19 C19            6.7491    -4.6203    -1.3340 C.3     
  20 C20            7.8156    -2.7374    -0.0851 C.3     
  21 N21            5.7170    -6.4518    -0.0843 N.am    
  22 C22            6.7538    -7.3128    -0.0983 C.2     
  23 O23            7.8931    -6.8914    -0.1068 O.2     
  24 C24            6.5036    -8.7759    -0.1033 C.ar    
  25 N25            5.2586    -9.2490    -0.0941 N.ar    
  26 C26            5.0263   -10.5444    -0.0989 C.ar    
  27 N27            6.0019   -11.4296    -0.1129 N.ar    
  28 C28            7.2749   -11.0434    -0.1229 C.ar    
  29 C29            7.5672    -9.6752    -0.1236 C.ar    
  30 C30            8.3665   -12.0469    -0.1387 C.ar    
  31 C31            8.0656   -13.4080    -0.1432 C.ar    
  32 C32            9.0856   -14.3374    -0.1579 C.ar    
  33 C33           10.4046   -13.9206    -0.1676 C.ar    
  34 C34           10.7092   -12.5712    -0.1632 C.ar    
  35 C35            9.6974   -11.6327    -0.1548 C.ar    
  36 H36           -0.9602     1.9092     0.0170 H       
  37 H37            3.1977     1.9798    -0.0174 H       
  38 H38            2.7740    -2.5368    -0.0371 H       
  39 H39            5.8783    -1.3046     1.1895 H       
  40 H40            5.1352    -2.6550     2.0796 H       
  41 H41            4.0687    -4.5380     0.8308 H       
  42 H42            4.0521    -4.5290    -0.9491 H       
  43 H43            6.2131    -4.9090     2.0582 H       
  44 H44            7.7241    -5.1643     1.1528 H       
  45 H45            7.6064    -2.8578     2.0556 H       
  46 H46           -1.6160    -0.9540    -1.0148 H       
  47 H47           -1.1461    -1.7273     0.5180 H       
  48 H48           -2.0553    -0.1971     0.5352 H       
  49 H49            5.0952    -2.6335    -2.1986 H       
  50 H50            5.8550    -1.2920    -1.3089 H       
  51 H51            7.5665    -2.8362    -2.2226 H       
  52 H52            7.7008    -5.1517    -1.3455 H       
  53 H53            6.1731    -4.8874    -2.2200 H       
  54 H54            7.9993    -1.6630    -0.0814 H       
  55 H55            8.7672    -3.2687    -0.0967 H       
  56 H56            4.8072    -6.7883    -0.0775 H       
  57 H57            4.0040   -10.8926    -0.0907 H       
  58 H58            8.5891    -9.3259    -0.1320 H       
  59 H59            7.0362   -13.7346    -0.1349 H       
  60 H60            8.8537   -15.3922    -0.1614 H       
  61 H61           11.1997   -14.6515    -0.1784 H       
  62 H62           11.7408   -12.2515    -0.1708 H       
  63 H63            9.9364   -10.5795    -0.1514 H       
@<TRIPOS>BOND
   1    1    2 ar
   2    1    6 ar
   3    1   36 1
   4    2    3 ar
   5    2   16 1
   6    3    4 ar
   7    4    5 ar
   8    4    7 1
   9    5    6 ar
  10    5   37 1
  11    7    8 2
  12    7    9 am
  13    9   11 1
  14    9   38 1
  15   10   11 1
  16   10   15 1
  17   10   39 1
  18   10   40 1
  19   11   12 1
  20   11   17 1
  21   12   13 1
  22   12   41 1
  23   12   42 1
  24   13   14 1
  25   13   19 1
  26   13   21 1
  27   14   15 1
  28   14   43 1
  29   14   44 1
  30   15   20 1
  31   15   45 1
  32   16   46 1
  33   16   47 1
  34   16   48 1
  35   17   18 1
  36   17   49 1
  37   17   50 1
  38   18   19 1
  39   18   20 1
  40   18   51 1
  41   19   52 1
  42   19   53 1
  43   20   54 1
  44   20   55 1
  45   21   22 am
  46   21   56 1
  47   22   23 2
  48   22   24 1
  49   24   25 ar
  50   24   29 ar
  51   25   26 ar
  52   26   27 ar
  53   26   57 1
  54   27   28 ar
  55   28   29 ar
  56   28   30 1
  57   29   58 1
  58   30   31 ar
  59   30   35 ar
  60   31   32 ar
  61   31   59 1
  62   32   33 ar
  63   32   60 1
  64   33   34 ar
  65   33   61 1
  66   34   35 ar
  67   34   62 1
  68   35   63 1

#	End of record

