#	Name: ASD01150925
#	Creating user name:	WinNT
#	Creation time:	15. 06. 2019 19:05

#	Modifying user name:	WinNT
#	Modification time:	15. 06. 2019 19:05

#	Program:	/corina/corina34_cracker 3.40 0067  02.08.2006

@<TRIPOS>MOLECULE
ASD01150925
  42   43    0    0    0
SMALL
NO_CHARGES


@<TRIPOS>ATOM
   1 C1            -0.0184     1.5028     0.0103 C.3     
   2 C2             0.0021    -0.0041     0.0020 C.2     
   3 N3             0.0224    -0.6841     1.1654 N.am    
   4 O4             0.0003    -0.6047    -1.0515 O.2     
   5 C5             0.0412    -2.0750     1.1578 C.2     
   6 N6             0.0421    -2.8560     0.0750 N.2     
   7 C7             0.0630    -4.1236     0.4333 C.2     
   8 N8             0.0768    -4.2078     1.7886 N.pl3   
   9 C9             0.0686    -2.8995     2.2752 C.2     
  10 C10            0.0776    -2.4971     3.6262 C.2     
  11 O11            0.0959    -3.4252     4.6071 O.3     
  12 O12            0.0687    -1.3126     3.9087 O.2     
  13 C13            0.1041    -2.9461     5.9534 C.3     
  14 C14            0.1248    -4.1341     6.9173 C.3     
  15 S15            0.0710    -5.4952    -0.6729 S.3     
  16 C16            0.0441    -4.6210    -2.2576 C.3     
  17 C17            0.1008    -5.4360     2.5868 C.3     
  18 C18            1.5297    -5.8375     2.8478 C.ar    
  19 C19            2.1850    -5.3693     3.9713 C.ar    
  20 C20            3.4957    -5.7376     4.2107 C.ar    
  21 C21            4.1510    -6.5744     3.3269 C.ar    
  22 C22            3.4954    -7.0434     2.2038 C.ar    
  23 C23            2.1833    -6.6786     1.9667 C.ar    
  24 H24            1.0042     1.8801     0.0026 H       
  25 H25           -0.5455     1.8639    -0.8728 H       
  26 H26           -0.5286     1.8543     0.9071 H       
  27 H27            0.0238    -0.2037     2.0081 H       
  28 H28            0.9897    -2.3315     6.1150 H       
  29 H29           -0.7901    -2.3489     6.1319 H       
  30 H30            0.1310    -3.7686     7.9442 H       
  31 H31           -0.7608    -4.7486     6.7557 H       
  32 H32            1.0190    -4.7313     6.7388 H       
  33 H33            0.0461    -5.3453    -3.0721 H       
  34 H34           -0.8549    -4.0077    -2.3190 H       
  35 H35            0.9248    -3.9837    -2.3359 H       
  36 H36           -0.4070    -5.2627     3.5356 H       
  37 H37           -0.4069    -6.2326     2.0431 H       
  38 H38            1.6731    -4.7155     4.6619 H       
  39 H39            4.0079    -5.3712     5.0881 H       
  40 H40            5.1752    -6.8616     3.5135 H       
  41 H41            4.0074    -7.6969     1.5131 H       
  42 H42            1.6711    -7.0449     1.0893 H       
@<TRIPOS>BOND
   1    1    2 1
   2    1   24 1
   3    1   25 1
   4    1   26 1
   5    2    3 am
   6    2    4 2
   7    3    5 1
   8    3   27 1
   9    5    6 1
  10    5    9 2
  11    6    7 2
  12    7    8 1
  13    7   15 1
  14    8    9 1
  15    8   17 1
  16    9   10 1
  17   10   11 1
  18   10   12 2
  19   11   13 1
  20   13   14 1
  21   13   28 1
  22   13   29 1
  23   14   30 1
  24   14   31 1
  25   14   32 1
  26   15   16 1
  27   16   33 1
  28   16   34 1
  29   16   35 1
  30   17   18 1
  31   17   36 1
  32   17   37 1
  33   18   19 ar
  34   18   23 ar
  35   19   20 ar
  36   19   38 1
  37   20   21 ar
  38   20   39 1
  39   21   22 ar
  40   21   40 1
  41   22   23 ar
  42   22   41 1
  43   23   42 1

#	End of record

