#	Name: ASD07930133
#	Creating user name:	WinNT
#	Creation time:	15. 06. 2019 21:11

#	Modifying user name:	WinNT
#	Modification time:	15. 06. 2019 21:11

#	Program:	/corina/corina34_cracker 3.40 0067  02.08.2006

@<TRIPOS>MOLECULE
ASD07930133
  61   65    0    0    0
SMALL
NO_CHARGES


@<TRIPOS>ATOM
   1 C1             0.5557     1.1563    -0.4737 C.2     
   2 C2             0.1556    -0.2143    -0.0853 C.2     
   3 N3             1.7221     1.3258    -1.1847 N.am    
   4 N4             1.1074    -1.1765    -0.0293 N.am    
   5 C5             2.5006    -0.8108    -0.3219 C.3     
   6 C6             2.5122     0.1366    -1.5309 C.3     
   7 C7            -0.2206     2.2222    -0.1369 C.2     
   8 C8             0.1550     3.5213    -0.5006 C.2     
   9 C9             1.3143     3.7164    -1.2001 C.2     
  10 C10            2.1293     2.5522    -1.5556 C.2     
  11 O11           -1.0031    -0.4714     0.1785 O.2     
  12 O12            3.1661     2.6939    -2.1813 O.2     
  13 C13            2.8155     5.6664    -1.1412 C.2     
  14 N14            2.8465     6.8394    -1.7123 N.2     
  15 C15            1.7821     6.9698    -2.5184 C.2     
  16 C16            1.0596     5.8358    -2.4480 C.2     
  17 N17            1.7111     5.0034    -1.5743 N.pl3   
  18 C18            1.4518     8.1772    -3.3575 C.3     
  19 C19            0.7547    -2.5559     0.3159 C.3     
  20 C20           -0.0341    -3.1839    -0.8349 C.3     
  21 C21           -0.1016    -2.5613     1.5838 C.3     
  22 O22           -1.3139    -2.5560    -0.9336 O.3     
  23 O23           -5.6284    -1.8191    -1.3691 O.3     
  24 C24           -5.9522    -2.5622    -0.1796 C.3     
  25 C25           -4.6908    -3.2991     0.2061 C.ar    
  26 C26           -3.6382    -2.6862    -0.4542 C.ar    
  27 C27           -4.2175    -1.5525    -1.2676 C.3     
  28 C28           -2.3475    -3.1563    -0.2858 C.ar    
  29 C29           -2.1105    -4.2423     0.5456 C.ar    
  30 C30           -3.1617    -4.8512     1.2031 C.ar    
  31 C31           -4.4534    -4.3796     1.0336 C.ar    
  32 C32           -3.5846    -1.5257    -2.6603 C.3     
  33 F33           -4.2801    -0.6226    -3.4713 F       
  34 F34           -2.2478    -1.1260    -2.5573 F       
  35 F35           -3.6470    -2.8039    -3.2256 F       
  36 C36           -3.9829    -0.2190    -0.5552 C.3     
  37 F37           -5.4805    -4.9762     1.6774 F       
  38 H38            2.9363    -0.3080     0.5415 H       
  39 H39            3.0738    -1.7083    -0.5545 H       
  40 H40            2.0693    -0.3615    -2.3933 H       
  41 H41            3.5370     0.4290    -1.7598 H       
  42 H42           -1.1350     2.0646     0.4158 H       
  43 H43           -0.4662     4.3628    -0.2312 H       
  44 H44            3.5474     5.2847    -0.4447 H       
  45 H45            0.1429     5.6227    -2.9778 H       
  46 H46            1.9139     8.0747    -4.3394 H       
  47 H47            0.3706     8.2559    -3.4712 H       
  48 H48            1.8320     9.0743    -2.8688 H       
  49 H49            1.6643    -3.1310     0.4893 H       
  50 H50            0.5118    -3.0447    -1.7681 H       
  51 H51           -0.1656    -4.2494    -0.6464 H       
  52 H52           -0.2997    -3.5902     1.8840 H       
  53 H53            0.4300    -2.0454     2.3834 H       
  54 H54           -1.0451    -2.0521     1.3872 H       
  55 H55           -6.2490    -1.8822     0.6189 H       
  56 H56           -6.7533    -3.2718    -0.3865 H       
  57 H57           -1.1041    -4.6110     0.6787 H       
  58 H58           -2.9765    -5.6961     1.8499 H       
  59 H59           -4.2622    -0.3136     0.4942 H       
  60 H60           -2.9295     0.0513    -0.6278 H       
  61 H61           -4.5899     0.5553    -1.0244 H       
@<TRIPOS>BOND
   1    1    2 1
   2    1    3 1
   3    1    7 2
   4    2    4 am
   5    2   11 2
   6    3    6 1
   7    3   10 am
   8    4    5 1
   9    4   19 1
  10    5    6 1
  11    5   38 1
  12    5   39 1
  13    6   40 1
  14    6   41 1
  15    7    8 1
  16    7   42 1
  17    8    9 2
  18    8   43 1
  19    9   10 1
  20    9   17 1
  21   10   12 2
  22   13   14 2
  23   13   17 1
  24   13   44 1
  25   14   15 1
  26   15   16 2
  27   15   18 1
  28   16   17 1
  29   16   45 1
  30   18   46 1
  31   18   47 1
  32   18   48 1
  33   19   20 1
  34   19   21 1
  35   19   49 1
  36   20   22 1
  37   20   50 1
  38   20   51 1
  39   21   52 1
  40   21   53 1
  41   21   54 1
  42   22   28 1
  43   23   24 1
  44   23   27 1
  45   24   25 1
  46   24   55 1
  47   24   56 1
  48   25   26 ar
  49   25   31 ar
  50   26   27 1
  51   26   28 ar
  52   27   32 1
  53   27   36 1
  54   28   29 ar
  55   29   30 ar
  56   29   57 1
  57   30   31 ar
  58   30   58 1
  59   31   37 1
  60   32   33 1
  61   32   34 1
  62   32   35 1
  63   36   59 1
  64   36   60 1
  65   36   61 1

#	End of record

