#	Name: ASD01028834
#	Creating user name:	WinNT
#	Creation time:	15. 06. 2019 18:58

#	Modifying user name:	WinNT
#	Modification time:	15. 06. 2019 18:58

#	Program:	/corina/corina34_cracker 3.40 0067  02.08.2006

@<TRIPOS>MOLECULE
ASD01028834
  45   49    0    0    0
SMALL
NO_CHARGES


@<TRIPOS>ATOM
   1 C1            -0.0157     1.3060     0.0092 C.ar    
   2 N2             0.0021    -0.0041     0.0020 N.ar    
   3 C3             1.1645     2.0563     0.0020 C.ar    
   4 C4             2.3770     1.4188    -0.0130 C.ar    
   5 C5             2.3867     0.0119    -0.0207 C.ar    
   6 C6             1.1525    -0.6850    -0.0126 C.ar    
   7 C7             3.5911    -0.7100    -0.0356 C.ar    
   8 C8             3.5598    -2.0712    -0.0422 C.ar    
   9 C9             2.3478    -2.7583    -0.0348 C.ar    
  10 C10            1.1619    -2.0906    -0.0203 C.ar    
  11 C11            4.8530    -2.8448    -0.0582 C.3     
  12 C12            5.2974    -3.1098     1.3572 C.2     
  13 N13            6.4114    -3.7760     1.7316 N.pl3   
  14 C14            6.4104    -3.7741     3.1064 C.2     
  15 N15            5.3234    -3.1234     3.4875 N.2     
  16 N16            4.6760    -2.7309     2.4462 N.2     
  17 N17            7.4485    -4.3975     1.0331 N.2     
  18 C18            8.4304    -4.9847     1.6809 C.2     
  19 C19            8.4575    -5.0002     3.0916 C.2     
  20 C20            7.4625    -4.4028     3.7990 C.2     
  21 C21            9.5226    -5.6394     0.9195 C.ar    
  22 C22            9.5063    -5.6310    -0.4739 C.ar    
  23 C23           10.5252    -6.2411    -1.1771 C.ar    
  24 C24           11.5612    -6.8601    -0.5012 C.ar    
  25 C25           11.5825    -6.8715     0.8818 C.ar    
  26 C26           10.5715    -6.2600     1.5952 C.ar    
  27 O27            1.1087     3.4142     0.0094 O.3     
  28 C28           -0.1901     4.0101     0.0245 C.3     
  29 F29            4.6607    -4.0611    -0.7221 F       
  30 F30            5.8334    -2.1005    -0.7231 F       
  31 H31           -0.9658     1.8194     0.0165 H       
  32 H32            3.2995     1.9804    -0.0192 H       
  33 H33            4.5368    -0.1884    -0.0421 H       
  34 H34            2.3494    -3.8383    -0.0407 H       
  35 H35            0.2314    -2.6388    -0.0145 H       
  36 H36            9.2702    -5.4871     3.6099 H       
  37 H37            7.4781    -4.4116     4.8788 H       
  38 H38            8.6977    -5.1482    -1.0026 H       
  39 H39           10.5134    -6.2355    -2.2570 H       
  40 H40           12.3563    -7.3367    -1.0554 H       
  41 H41           12.3936    -7.3567     1.4044 H       
  42 H42           10.5891    -6.2694     2.6750 H       
  43 H43           -0.0918     5.0956     0.0291 H       
  44 H44           -0.7429     3.6991    -0.8619 H       
  45 H45           -0.7263     3.6900     0.9180 H       
@<TRIPOS>BOND
   1    1    2 ar
   2    1    3 ar
   3    1   31 1
   4    2    6 ar
   5    3    4 ar
   6    3   27 1
   7    4    5 ar
   8    4   32 1
   9    5    6 ar
  10    5    7 ar
  11    6   10 ar
  12    7    8 ar
  13    7   33 1
  14    8    9 ar
  15    8   11 1
  16    9   10 ar
  17    9   34 1
  18   10   35 1
  19   11   12 1
  20   11   29 1
  21   11   30 1
  22   12   13 1
  23   12   16 2
  24   13   14 1
  25   13   17 1
  26   14   15 2
  27   14   20 1
  28   15   16 1
  29   17   18 2
  30   18   19 1
  31   18   21 1
  32   19   20 2
  33   19   36 1
  34   20   37 1
  35   21   22 ar
  36   21   26 ar
  37   22   23 ar
  38   22   38 1
  39   23   24 ar
  40   23   39 1
  41   24   25 ar
  42   24   40 1
  43   25   26 ar
  44   25   41 1
  45   26   42 1
  46   27   28 1
  47   28   43 1
  48   28   44 1
  49   28   45 1

#	End of record

