#	Name: ASD07300924
#	Creating user name:	WinNT
#	Creation time:	15. 06. 2019 21:10

#	Modifying user name:	WinNT
#	Modification time:	15. 06. 2019 21:10

#	Program:	/corina/corina34_cracker 3.40 0067  02.08.2006

@<TRIPOS>MOLECULE
ASD07300924
  48   52    0    0    0
SMALL
NO_CHARGES


@<TRIPOS>ATOM
   1 N1             0.1105     1.3386    -0.0144 N.am    
   2 C2             0.0648    -0.0150    -0.0980 C.2     
   3 N3             1.1283    -0.7550    -0.2131 N.2     
   4 C4             2.3602    -0.2235    -0.2583 C.2     
   5 C5             2.5076     1.1702    -0.1791 C.2     
   6 C6             1.2994     1.9848    -0.0495 C.2     
   7 N7             3.6113    -0.7401    -0.3712 N.pl3   
   8 N8             4.5273     0.3195    -0.3625 N.2     
   9 C9             3.8851     1.4494    -0.2496 C.2     
  10 O10            1.3609     3.1993     0.0234 O.2     
  11 C11            3.9456    -2.1621    -0.4826 C.3     
  12 C12            4.5635    -2.4348    -1.8554 C.3     
  13 C13            4.9125    -3.9199    -1.9717 C.3     
  14 C14            5.9142    -4.2955    -0.8779 C.3     
  15 C15            5.2963    -4.0228     0.4950 C.3     
  16 C16            4.9472    -2.5377     0.6113 C.3     
  17 C17           -1.2806    -0.6925    -0.0549 C.3     
  18 C18           -1.2967    -2.0738    -0.7307 C.3     
  19 C19           -2.1959    -2.5419     0.4257 C.3     
  20 C20           -1.5599    -1.4240     1.2687 C.3     
  21 C21           -0.3118    -1.8526     1.9965 C.2     
  22 C22            0.3297    -2.9881     1.7196 C.2     
  23 S23            1.7241    -3.1039     2.7900 S.3     
  24 C24            1.3093    -1.6094     3.5094 C.2     
  25 N25            0.2383    -1.1307     2.9567 N.2     
  26 N26            2.0177    -0.9962     4.5309 N.pl3   
  27 F27            6.2333    -5.6535    -0.9842 F       
  28 F28            7.0759    -3.5304    -1.0267 F       
  29 H29           -0.7126     1.8455     0.0667 H       
  30 H30            4.3339     2.4311    -0.2159 H       
  31 H31            3.0404    -2.7582    -0.3666 H       
  32 H32            3.8499    -2.1671    -2.6347 H       
  33 H33            5.4686    -1.8386    -1.9713 H       
  34 H34            4.0074    -4.5160    -1.8558 H       
  35 H35            5.3527    -4.1141    -2.9498 H       
  36 H36            4.3911    -4.6190     0.6109 H       
  37 H37            6.0098    -4.2905     1.2742 H       
  38 H38            5.8524    -1.9416     0.4953 H       
  39 H39            4.5070    -2.3435     1.5893 H       
  40 H40           -2.0934    -0.0404    -0.3747 H       
  41 H41           -1.7942    -2.0795    -1.7005 H       
  42 H42           -0.3221    -2.5614    -0.7509 H       
  43 H43           -3.2597    -2.3959     0.2382 H       
  44 H44           -1.9617    -3.5449     0.7824 H       
  45 H45           -2.2697    -0.9053     1.9129 H       
  46 H46            0.0441    -3.7112     0.9700 H       
  47 H47            2.8533    -1.3798     4.8399 H       
  48 H48            1.6777    -0.1834     4.9368 H       
@<TRIPOS>BOND
   1    1    2 1
   2    1    6 am
   3    1   29 1
   4    2    3 2
   5    2   17 1
   6    3    4 1
   7    4    5 2
   8    4    7 1
   9    5    6 1
  10    5    9 1
  11    6   10 2
  12    7    8 1
  13    7   11 1
  14    8    9 2
  15    9   30 1
  16   11   12 1
  17   11   16 1
  18   11   31 1
  19   12   13 1
  20   12   32 1
  21   12   33 1
  22   13   14 1
  23   13   34 1
  24   13   35 1
  25   14   15 1
  26   14   27 1
  27   14   28 1
  28   15   16 1
  29   15   36 1
  30   15   37 1
  31   16   38 1
  32   16   39 1
  33   17   18 1
  34   17   20 1
  35   17   40 1
  36   18   19 1
  37   18   41 1
  38   18   42 1
  39   19   20 1
  40   19   43 1
  41   19   44 1
  42   20   21 1
  43   20   45 1
  44   21   22 2
  45   21   25 1
  46   22   23 1
  47   22   46 1
  48   23   24 1
  49   24   25 2
  50   24   26 1
  51   26   47 1
  52   26   48 1

#	End of record

