#	Name: ASD01883100
#	Creating user name:	WinNT
#	Creation time:	15. 06. 2019 19:45

#	Modifying user name:	WinNT
#	Modification time:	15. 06. 2019 19:45

#	Program:	/corina/corina34_cracker 3.40 0067  02.08.2006

@<TRIPOS>MOLECULE
ASD01883100
  37   39    0    0    0
SMALL
NO_CHARGES


@<TRIPOS>ATOM
   1 N1            -0.0162     1.3415     0.0094 N.am    
   2 C2             0.0021    -0.0041     0.0020 C.2     
   3 C3            -1.2144    -0.7274     0.0102 C.2     
   4 C4            -2.4281    -0.0089     0.0261 C.2     
   5 C5            -2.3786     1.4027     0.0332 C.2     
   6 C6            -1.1855     2.0348     0.0299 C.2     
   7 O7             1.0660    -0.5997    -0.0122 O.2     
   8 C8            -1.2131    -2.1594     0.0021 C.1     
   9 N9            -1.2121    -3.2954    -0.0044 N.1     
  10 C10            1.2518     2.0753     0.0013 C.3     
  11 C11           -3.7164    -0.7137     0.0347 C.2     
  12 C12            1.6730     2.3345    -1.4223 C.2     
  13 C13            1.9267     3.5723    -1.8235 C.2     
  14 C14            2.3398     3.8266    -3.2198 C.ar    
  15 C15            2.6076     5.1282    -3.6452 C.ar    
  16 C16            2.9928     5.3588    -4.9499 C.ar    
  17 C17            3.1132     4.3030    -5.8356 C.ar    
  18 C18            2.8488     3.0101    -5.4202 C.ar    
  19 C19            2.4692     2.7653    -4.1164 C.ar    
  20 C20           -4.6275    -0.6873     1.0523 C.2     
  21 C21           -5.7512    -1.4391     0.7958 C.2     
  22 C22           -5.7604    -2.0590    -0.3892 C.2     
  23 S23           -4.3366    -1.7208    -1.2664 S.3     
  24 H24           -3.2940     1.9757     0.0451 H       
  25 H25           -1.1596     3.1145     0.0354 H       
  26 H26            1.1254     3.0248     0.5214 H       
  27 H27            2.0169     1.4842     0.5046 H       
  28 H28            1.7682     1.5119    -2.1156 H       
  29 H29            1.8315     4.3949    -1.1302 H       
  30 H30            2.5132     5.9534    -2.9549 H       
  31 H31            3.2003     6.3658    -5.2804 H       
  32 H32            3.4147     4.4888    -6.8559 H       
  33 H33            2.9443     2.1902    -6.1166 H       
  34 H34            2.2634     1.7556    -3.7932 H       
  35 H35           -4.4803    -0.1322     1.9670 H       
  36 H36           -6.5658    -1.5226     1.4999 H       
  37 H37           -6.5641    -2.6864    -0.7454 H       
@<TRIPOS>BOND
   1    1    2 am
   2    1   10 1
   3    1    6 1
   4    2    3 1
   5    2    7 2
   6    3    4 2
   7    3    8 1
   8    4    5 1
   9    4   11 1
  10    5    6 2
  11    5   24 1
  12    6   25 1
  13    8    9 3
  14   10   12 1
  15   10   26 1
  16   10   27 1
  17   11   20 2
  18   11   23 1
  19   12   13 2
  20   12   28 1
  21   13   14 1
  22   13   29 1
  23   14   15 ar
  24   14   19 ar
  25   15   16 ar
  26   15   30 1
  27   16   17 ar
  28   16   31 1
  29   17   18 ar
  30   17   32 1
  31   18   19 ar
  32   18   33 1
  33   19   34 1
  34   20   21 1
  35   20   35 1
  36   21   22 2
  37   21   36 1
  38   22   23 1
  39   22   37 1

#	End of record

