#	Name: ASD01811376
#	Creating user name:	WinNT
#	Creation time:	15. 06. 2019 19:26

#	Modifying user name:	WinNT
#	Modification time:	15. 06. 2019 19:26

#	Program:	/corina/corina34_cracker 3.40 0067  02.08.2006

@<TRIPOS>MOLECULE
ASD01811376
  41   42    0    0    0
SMALL
NO_CHARGES


@<TRIPOS>ATOM
   1 C1            -0.0183     1.4992     0.0103 C.3     
   2 C2             0.0021    -0.0041     0.0020 C.2     
   3 C3             1.0848    -0.7109    -0.2220 C.2     
   4 C4             2.4407    -0.1240    -0.4805 C.3     
   5 C5             2.3156     1.3401    -0.9099 C.3     
   6 N6             1.3635     2.0004    -0.0002 N.am    
   7 C7             1.7442     3.0228     0.7910 C.2     
   8 O8             2.8930     3.4178     0.7628 O.2     
   9 O9             0.8517     3.6066     1.6128 O.3     
  10 C10            0.9601    -2.1823    -0.2189 C.ar    
  11 C11            0.1889    -2.8198    -1.1939 C.ar    
  12 C12            0.0728    -4.1861    -1.1914 C.ar    
  13 C13            0.7266    -4.9411    -0.2133 C.ar    
  14 C14            1.4985    -4.3028     0.7619 C.ar    
  15 C15            1.6180    -2.9369     0.7557 C.ar    
  16 C16            0.6052    -6.3680    -0.2100 C.1     
  17 N17            0.5090    -7.4999    -0.2073 N.1     
  18 C18            1.3319     4.7019     2.4363 C.3     
  19 C19            1.8580     5.8229     1.5377 C.3     
  20 C20            0.1842     5.2342     3.2968 C.3     
  21 C21            2.4594     4.2027     3.3420 C.3     
  22 H22           -0.5438     1.8613    -0.8734 H       
  23 H23           -0.5268     1.8517     0.9076 H       
  24 H24           -0.9224    -0.5296     0.1906 H       
  25 H25            3.0385    -0.1831     0.4290 H       
  26 H26            2.9341    -0.6904    -1.2703 H       
  27 H27            3.2879     1.8281    -0.8433 H       
  28 H28            1.9449     1.3936    -1.9335 H       
  29 H29           -0.3161    -2.2365    -1.9496 H       
  30 H30           -0.5239    -4.6788    -1.9448 H       
  31 H31            2.0037    -4.8857     1.5178 H       
  32 H32            2.2176    -2.4439     1.5066 H       
  33 H33            1.0547     6.1786     0.8925 H       
  34 H34            2.2185     6.6451     2.1559 H       
  35 H35            2.6756     5.4437     0.9247 H       
  36 H36           -0.1906     4.4355     3.9369 H       
  37 H37            0.5447     6.0564     3.9150 H       
  38 H38           -0.6190     5.5898     2.6515 H       
  39 H39            3.2770     3.8235     2.7290 H       
  40 H40            2.8198     5.0249     3.9602 H       
  41 H41            2.0845     3.4040     3.9822 H       
@<TRIPOS>BOND
   1    1    2 1
   2    1    6 1
   3    1   22 1
   4    1   23 1
   5    2    3 2
   6    2   24 1
   7    3    4 1
   8    3   10 1
   9    4    5 1
  10    4   25 1
  11    4   26 1
  12    5    6 1
  13    5   27 1
  14    5   28 1
  15    6    7 am
  16    7    8 2
  17    7    9 1
  18    9   18 1
  19   10   11 ar
  20   10   15 ar
  21   11   12 ar
  22   11   29 1
  23   12   13 ar
  24   12   30 1
  25   13   14 ar
  26   13   16 1
  27   14   15 ar
  28   14   31 1
  29   15   32 1
  30   16   17 3
  31   18   19 1
  32   18   21 1
  33   18   20 1
  34   19   33 1
  35   19   34 1
  36   19   35 1
  37   20   36 1
  38   20   37 1
  39   20   38 1
  40   21   39 1
  41   21   40 1
  42   21   41 1

#	End of record

