#	Name: ASD03080157
#	Creating user name:	WinNT
#	Creation time:	15. 06. 2019 20:26

#	Modifying user name:	WinNT
#	Modification time:	15. 06. 2019 20:26

#	Program:	/corina/corina34_cracker 3.40 0067  02.08.2006

@<TRIPOS>MOLECULE
ASD03080157
  42   44    0    0    0
SMALL
NO_CHARGES


@<TRIPOS>ATOM
   1 C1            -0.0187     1.5296     0.0105 C.3     
   2 C2             0.0021    -0.0041     0.0020 C.3     
   3 C3             0.7699    -0.4897     1.2380 C.3     
   4 C4             2.1907     0.0797     1.1928 C.3     
   5 N5             2.3478     0.9014    -0.0152 N.3     
   6 C6             1.4239     2.0435    -0.0006 C.3     
   7 C7             0.7465    -0.4764    -1.2532 C.3     
   8 C8             2.1680     0.0924    -1.2286 C.3     
   9 N9            -1.3664    -0.5266     0.0216 N.am    
  10 C10           -1.5798    -1.8573     0.0181 C.2     
  11 C11           -2.9612    -2.3848     0.0379 C.ar    
  12 O12           -0.6367    -2.6240    -0.0014 O.2     
  13 C13           -3.1722    -3.7611     0.0341 C.ar    
  14 C14           -4.4708    -4.2445     0.0516 C.ar    
  15 C15           -5.5179    -3.3325     0.0723 C.ar    
  16 C16           -5.2362    -1.9636     0.0780 C.ar    
  17 N17           -3.9866    -1.5395     0.0647 N.ar    
  18 O18           -6.7989    -3.7826     0.0820 O.3     
  19 C19           -7.8069    -2.8445     0.4754 C.3     
  20 C20           -7.5468    -1.5230    -0.2600 C.3     
  21 O21           -6.2454    -1.0526     0.1061 O.3     
  22 H22           -0.5425     1.8927    -0.8738 H       
  23 H23           -0.5255     1.8831     0.9084 H       
  24 H24            0.2661    -0.1432     2.1403 H       
  25 H25            0.8127    -1.5788     1.2367 H       
  26 H26            2.3643     0.6945     2.0760 H       
  27 H27            2.9100    -0.7389     1.1719 H       
  28 H28            1.5858     2.6536    -0.8892 H       
  29 H29            1.6026     2.6445     0.8911 H       
  30 H30            0.7891    -1.5655    -1.2645 H       
  31 H31            0.2260    -0.1202    -2.1422 H       
  32 H32            2.3254     0.7164    -2.1084 H       
  33 H33            2.8874    -0.7264    -1.2297 H       
  34 H34           -2.1190     0.0852     0.0372 H       
  35 H35           -2.3348    -4.4430     0.0173 H       
  36 H36           -4.6643    -5.3070     0.0489 H       
  37 H37           -8.7910    -3.2277     0.2057 H       
  38 H38           -7.7575    -2.6818     1.5521 H       
  39 H39           -7.5883    -1.6876    -1.3367 H       
  40 H40           -8.2979    -0.7879     0.0290 H       
  41 Cl41           7.9100     7.6536     7.1403 Cl      
  42 H42            7.9100     9.0236     7.1403 H       
@<TRIPOS>BOND
   1    1    2 1
   2    1    6 1
   3    1   22 1
   4    1   23 1
   5    2    3 1
   6    2    7 1
   7    2    9 1
   8    3    4 1
   9    3   24 1
  10    3   25 1
  11    4    5 1
  12    4   26 1
  13    4   27 1
  14    5    6 1
  15    5    8 1
  16    6   28 1
  17    6   29 1
  18    7    8 1
  19    7   30 1
  20    7   31 1
  21    8   32 1
  22    8   33 1
  23    9   10 am
  24    9   34 1
  25   10   11 1
  26   10   12 2
  27   11   13 ar
  28   11   17 ar
  29   13   14 ar
  30   13   35 1
  31   14   15 ar
  32   14   36 1
  33   15   16 ar
  34   15   18 1
  35   16   17 ar
  36   16   21 1
  37   18   19 1
  38   19   20 1
  39   19   37 1
  40   19   38 1
  41   20   21 1
  42   20   39 1
  43   20   40 1
  44   41   42 1

#	End of record

