#	Name: ASD01140115
#	Creating user name:	WinNT
#	Creation time:	15. 06. 2019 19:00

#	Modifying user name:	WinNT
#	Modification time:	15. 06. 2019 19:00

#	Program:	/corina/corina34_cracker 3.40 0067  02.08.2006

@<TRIPOS>MOLECULE
ASD01140115
  51   53    0    0    0
SMALL
NO_CHARGES


@<TRIPOS>ATOM
   1 C1             0.6887     1.2730     0.3290 C.3     
   2 C2             0.5293    -0.2624     0.3379 C.3     
   3 C3             1.9401    -0.7617    -0.0448 C.3     
   4 C4             2.7528     0.5017    -0.2416 C.2     
   5 O5             2.1278     1.5055     0.4008 O.3     
   6 O6             3.7830     0.5922    -0.8664 O.2     
   7 N7             0.1566    -0.7367     1.6730 N.am    
   8 C8             2.5320    -1.6060     1.0856 C.3     
   9 C9             1.8862    -1.5691    -1.3433 C.3     
  10 S10           -1.4331    -1.0275     2.0345 S.o2    
  11 C11            3.8867    -2.1664     0.6479 C.3     
  12 C12            4.4363    -3.0845     1.7416 C.3     
  13 C13            1.2501    -0.7200    -2.4457 C.3     
  14 C14            1.3167    -1.4760    -3.7742 C.3     
  15 C15           -1.9628    -2.3656     1.0179 C.ar    
  16 O16           -1.4594    -1.5052     3.3725 O.2     
  17 O17           -2.1583     0.1158     1.6030 O.2     
  18 C18           -2.9248    -2.1695     0.0755 C.ar    
  19 C19           -3.3565    -3.2159    -0.7378 C.ar    
  20 C20           -2.8285    -4.4640    -0.6131 C.ar    
  21 C21           -1.8326    -4.7048     0.3487 C.ar    
  22 C22           -1.3898    -3.6397     1.1721 C.ar    
  23 C23           -1.2637    -5.9801     0.5068 C.ar    
  24 C24           -0.3013    -6.1761     1.4489 C.ar    
  25 C25            0.1303    -5.1299     2.2623 C.ar    
  26 C26           -0.3939    -3.8805     2.1340 C.ar    
  27 H27            0.2833     1.6903    -0.5927 H       
  28 H28            0.1910     1.7103     1.1945 H       
  29 H29           -0.2052    -0.5779    -0.4031 H       
  30 H30            0.8410    -0.8803     2.3452 H       
  31 H31            2.6647    -0.9851     1.9716 H       
  32 H32            1.8558    -2.4291     1.3167 H       
  33 H33            2.8972    -1.8499    -1.6387 H       
  34 H34            1.2902    -2.4682    -1.1876 H       
  35 H35            3.7644    -2.7334    -0.2749 H       
  36 H36            4.5827    -1.3445     0.4799 H       
  37 H37            4.5586    -2.5174     2.6644 H       
  38 H38            3.7403    -3.9063     1.9097 H       
  39 H39            5.4014    -3.4837     1.4298 H       
  40 H40            0.2088    -0.5187    -2.1941 H       
  41 H41            1.7907     0.2221    -2.5363 H       
  42 H42            0.7762    -2.4182    -3.6836 H       
  43 H43            0.8635    -0.8711    -4.5596 H       
  44 H44            2.3580    -1.6773    -4.0259 H       
  45 H45           -3.3605    -1.1885    -0.0437 H       
  46 H46           -4.1217    -3.0335    -1.4778 H       
  47 H47           -3.1733    -5.2653    -1.2498 H       
  48 H48           -1.5888    -6.8005    -0.1159 H       
  49 H49            0.1342    -7.1572     1.5683 H       
  50 H50            0.8950    -5.3124     3.0027 H       
  51 H51           -0.0495    -3.0793     2.7711 H       
@<TRIPOS>BOND
   1    1    2 1
   2    1    5 1
   3    1   27 1
   4    1   28 1
   5    2    3 1
   6    2    7 1
   7    2   29 1
   8    3    4 1
   9    3    9 1
  10    3    8 1
  11    4    5 1
  12    4    6 2
  13    7   10 am
  14    7   30 1
  15    8   11 1
  16    8   31 1
  17    8   32 1
  18    9   13 1
  19    9   33 1
  20    9   34 1
  21   10   15 1
  22   10   16 2
  23   10   17 2
  24   11   12 1
  25   11   35 1
  26   11   36 1
  27   12   37 1
  28   12   38 1
  29   12   39 1
  30   13   14 1
  31   13   40 1
  32   13   41 1
  33   14   42 1
  34   14   43 1
  35   14   44 1
  36   15   18 ar
  37   15   22 ar
  38   18   19 ar
  39   18   45 1
  40   19   20 ar
  41   19   46 1
  42   20   21 ar
  43   20   47 1
  44   21   22 ar
  45   21   23 ar
  46   22   26 ar
  47   23   24 ar
  48   23   48 1
  49   24   25 ar
  50   24   49 1
  51   25   26 ar
  52   25   50 1
  53   26   51 1

#	End of record

