#	Name: ASD03092519
#	Creating user name:	WinNT
#	Creation time:	15. 06. 2019 20:32

#	Modifying user name:	WinNT
#	Modification time:	15. 06. 2019 20:32

#	Program:	/corina/corina34_cracker 3.40 0067  02.08.2006

@<TRIPOS>MOLECULE
ASD03092519
  34   36    0    0    0
SMALL
NO_CHARGES


@<TRIPOS>ATOM
   1 N1            -0.0166     1.3723     0.0096 N.pl3   
   2 C2             0.0021    -0.0041     0.0020 C.2     
   3 C3             1.3222    -0.4015    -0.0127 C.2     
   4 C4             2.1009     0.7600    -0.0139 C.2     
   5 C5             1.2616     1.8230    -0.0002 C.2     
   6 C6            -1.1691    -0.8871     0.0092 C.2     
   7 O7            -1.0206    -2.0949     0.0012 O.2     
   8 N8            -2.4098    -0.3607     0.0246 N.am    
   9 C9            -3.5796    -1.2427     0.0318 C.3     
  10 N10           -8.2740     1.8631    -0.1771 N.pl3   
  11 C11           -8.4283     1.9636    -1.5330 C.2     
  12 C12           -7.4367     1.3075    -2.1562 C.2     
  13 C13           -6.5772     0.7406    -1.1142 C.ar    
  14 C14           -5.4129    -0.0300    -1.1295 C.ar    
  15 C15           -4.8359    -0.4106     0.0490 C.ar    
  16 C16           -5.3980    -0.0372     1.2623 C.ar    
  17 C17           -6.5464     0.7224     1.3004 C.ar    
  18 C18           -7.1509     1.1211     0.1125 C.ar    
  19 C19           -9.5460     2.7010    -2.2242 C.3     
  20 H20           -0.8121     1.9273     0.0165 H       
  21 H21            1.6862    -1.4182    -0.0217 H       
  22 H22            3.1800     0.8020    -0.0235 H       
  23 H23            1.5618     2.8604     0.0025 H       
  24 H24           -2.5282     0.6020     0.0310 H       
  25 H25           -3.5694    -1.8669    -0.8617 H       
  26 H26           -3.5513    -1.8764     0.9181 H       
  27 H27           -8.8654     2.2591     0.4819 H       
  28 H28           -7.2988     1.2152    -3.2234 H       
  29 H29           -4.9705    -0.3250    -2.0696 H       
  30 H30           -4.9302    -0.3457     2.1856 H       
  31 H31           -6.9762     1.0075     2.2493 H       
  32 H32           -9.2490     3.7363    -2.3921 H       
  33 H33           -9.7587     2.2243    -3.1810 H       
  34 H34          -10.4388     2.6760    -1.5994 H       
@<TRIPOS>BOND
   1    1    2 1
   2    1    5 1
   3    1   20 1
   4    2    3 2
   5    2    6 1
   6    3    4 1
   7    3   21 1
   8    4    5 2
   9    4   22 1
  10    5   23 1
  11    6    7 2
  12    6    8 am
  13    8    9 1
  14    8   24 1
  15    9   15 1
  16    9   25 1
  17    9   26 1
  18   10   11 1
  19   10   18 1
  20   10   27 1
  21   11   12 2
  22   11   19 1
  23   12   13 1
  24   12   28 1
  25   13   14 ar
  26   13   18 ar
  27   14   15 ar
  28   14   29 1
  29   15   16 ar
  30   16   17 ar
  31   16   30 1
  32   17   18 ar
  33   17   31 1
  34   19   32 1
  35   19   33 1
  36   19   34 1

#	End of record

