#	Name: ASD02038901
#	Creating user name:	WinNT
#	Creation time:	15. 06. 2019 20:17

#	Modifying user name:	WinNT
#	Modification time:	15. 06. 2019 20:17

#	Program:	/corina/corina34_cracker 3.40 0067  02.08.2006

@<TRIPOS>MOLECULE
ASD02038901
  63   65    0    0    0
SMALL
NO_CHARGES


@<TRIPOS>ATOM
   1 N1            -0.2675     1.0957     0.4439 N.am    
   2 C2            -0.1149    -0.3578     0.2836 C.3     
   3 C3             1.3818    -0.6846     0.4691 C.3     
   4 C4             1.9040     0.5284     1.2835 C.3     
   5 C5             1.0603     1.6857     0.6932 C.3     
   6 C6            -1.4282     1.7766     0.3693 C.2     
   7 O7            -2.4638     1.1877     0.1303 O.2     
   8 O8            -1.4402     3.1094     0.5597 O.3     
   9 C9            -0.9298    -1.0769     1.3275 C.2     
  10 N10           -1.8540    -0.4046     2.0420 N.am    
  11 O11           -0.7540    -2.2605     1.5248 O.2     
  12 C12           -3.8922    -0.3985     3.3592 C.2     
  13 C13           -2.5634    -1.0734     3.1355 C.3     
  14 C14           -1.7266    -0.9883     4.4136 C.3     
  15 C15           -0.3329    -1.5617     4.1497 C.3     
  16 O16           -4.2136     0.5443     2.6753 O.2     
  17 O17           -4.7186    -0.8449     4.3181 O.3     
  18 C18           -5.9817    -0.1467     4.4772 C.3     
  19 O19           -1.6112     0.3776     4.8173 O.3     
  20 C20           -0.5696    -0.7775    -1.1157 C.3     
  21 C21           -2.0514    -0.5410    -1.2545 C.ar    
  22 C22           -2.5156     0.4828    -2.0590 C.ar    
  23 C23           -3.8749     0.6997    -2.1862 C.ar    
  24 C24           -4.7700    -0.1074    -1.5092 C.ar    
  25 C25           -4.3058    -1.1318    -0.7055 C.ar    
  26 C26           -2.9466    -1.3515    -0.5817 C.ar    
  27 C27           -2.7259     3.7773     0.4647 C.3     
  28 C28           -2.5439     5.2539     0.7047 C.ar    
  29 C29           -2.2860     6.1001    -0.3575 C.ar    
  30 C30           -2.1190     7.4546    -0.1374 C.ar    
  31 C31           -2.2104     7.9629     1.1449 C.ar    
  32 C32           -2.4692     7.1167     2.2070 C.ar    
  33 C33           -2.6405     5.7629     1.9863 C.ar    
  34 H34            1.5077    -1.6097     1.0317 H       
  35 H35            1.8854    -0.7470    -0.4955 H       
  36 H36            1.7023     0.4009     2.3471 H       
  37 H37            2.9672     0.6898     1.1057 H       
  38 H38            1.5001     2.0382    -0.2397 H       
  39 H39            0.9836     2.5032     1.4101 H       
  40 H40           -2.0495     0.5220     1.8321 H       
  41 H41           -2.7262    -2.1196     2.8767 H       
  42 H42           -2.2115    -1.5611     5.2041 H       
  43 H43            0.1520    -0.9889     3.3592 H       
  44 H44            0.2632    -1.5011     5.0603 H       
  45 H45           -0.4209    -2.6036     3.8418 H       
  46 H46           -6.5500    -0.2078     3.5491 H       
  47 H47           -6.5524    -0.6073     5.2836 H       
  48 H48           -5.7910     0.8990     4.7183 H       
  49 H49           -1.1878     0.9474     4.1607 H       
  50 H50           -0.0363    -0.1894    -1.8627 H       
  51 H51           -0.3549    -1.8356    -1.2654 H       
  52 H52           -1.8163     1.1134    -2.5878 H       
  53 H53           -4.2376     1.5000    -2.8142 H       
  54 H54           -5.8319     0.0625    -1.6081 H       
  55 H55           -5.0051    -1.7622    -0.1763 H       
  56 H56           -2.5841    -2.1541     0.0434 H       
  57 H57           -3.1447     3.6196    -0.5292 H       
  58 H58           -3.4040     3.3683     1.2137 H       
  59 H59           -2.2147     5.7031    -1.3593 H       
  60 H60           -1.9168     8.1156    -0.9671 H       
  61 H61           -2.0792     9.0210     1.3170 H       
  62 H62           -2.5402     7.5138     3.2088 H       
  63 H63           -2.8463     5.1024     2.8156 H       
@<TRIPOS>BOND
   1    1    2 1
   2    1    5 1
   3    1    6 am
   4    2    3 1
   5    2    9 1
   6    2   20 1
   7    3    4 1
   8    3   34 1
   9    3   35 1
  10    4    5 1
  11    4   36 1
  12    4   37 1
  13    5   38 1
  14    5   39 1
  15    6    7 2
  16    6    8 1
  17    8   27 1
  18    9   10 am
  19    9   11 2
  20   10   13 1
  21   10   40 1
  22   12   16 2
  23   12   17 1
  24   12   13 1
  25   13   14 1
  26   13   41 1
  27   14   15 1
  28   14   19 1
  29   14   42 1
  30   15   43 1
  31   15   44 1
  32   15   45 1
  33   17   18 1
  34   18   46 1
  35   18   47 1
  36   18   48 1
  37   19   49 1
  38   20   21 1
  39   20   50 1
  40   20   51 1
  41   21   22 ar
  42   21   26 ar
  43   22   23 ar
  44   22   52 1
  45   23   24 ar
  46   23   53 1
  47   24   25 ar
  48   24   54 1
  49   25   26 ar
  50   25   55 1
  51   26   56 1
  52   27   28 1
  53   27   57 1
  54   27   58 1
  55   28   29 ar
  56   28   33 ar
  57   29   30 ar
  58   29   59 1
  59   30   31 ar
  60   30   60 1
  61   31   32 ar
  62   31   61 1
  63   32   33 ar
  64   32   62 1
  65   33   63 1

#	End of record

