#	Name: ASD06600065
#	Creating user name:	WinNT
#	Creation time:	15. 06. 2019 21:07

#	Modifying user name:	WinNT
#	Modification time:	15. 06. 2019 21:07

#	Program:	/corina/corina34_cracker 3.40 0067  02.08.2006

@<TRIPOS>MOLECULE
ASD06600065
 323  323    0    0    0
SMALL
NO_CHARGES


@<TRIPOS>ATOM
   1 C1            -0.3279     4.0453    -1.6619 C.2     
   2 O2            -0.1634     2.9312    -1.2118 O.2     
   3 N3             2.0638     4.0852    -2.0900 N.3     
   4 C4             0.7826     4.7216    -2.4238 C.3     
   5 C5             0.5240     4.5903    -3.9261 C.3     
   6 C6             1.5822     5.3820    -4.6969 C.3     
   7 C7             1.3236     5.2506    -6.1992 C.3     
   8 N8             2.3369     6.0088    -6.9373 N.pl3   
   9 C9             2.3077     6.0382    -8.3111 C.2     
  10 N10            1.4287     5.3293    -8.9588 N.2     
  11 N11            3.2112     6.8202    -9.0046 N.am    
  12 C12           -3.9249     4.5181    -1.3794 C.2     
  13 O13           -3.9486     5.5886    -1.9488 O.2     
  14 N14           -1.5057     4.6762    -1.4855 N.am    
  15 C15           -2.6232     3.9763    -0.8473 C.3     
  16 C16           -2.5621     4.1913     0.6663 C.3     
  17 C17           -3.7001     3.4197     1.3374 C.3     
  18 C18           -3.5004     1.9194     1.1139 C.3     
  19 C19           -3.7014     3.7160     2.8385 C.3     
  20 C20           -7.4843     3.7400    -1.0821 C.2     
  21 O21           -7.3073     3.0417    -0.1064 O.2     
  22 N22           -5.0627     3.8129    -1.2225 N.am    
  23 C23           -6.3032     4.2748    -1.8502 C.3     
  24 C24           -6.3629     3.7708    -3.2936 C.3     
  25 C25           -5.2355     4.4124    -4.1049 C.3     
  26 C26           -5.2952     3.9083    -5.5482 C.3     
  27 N27           -4.2157     4.5226    -6.3250 N.pl3   
  28 C28           -4.0686     4.2183    -7.6577 C.2     
  29 N29           -4.8896     3.3832    -8.2299 N.2     
  30 N30           -3.0555     4.7948    -8.3867 N.pl3   
  31 C31          -11.0844     3.4429    -1.6426 C.2     
  32 O32          -10.9891     3.7897    -2.8009 O.2     
  33 N33           -8.7373     4.0376    -1.4794 N.am    
  34 C34           -9.8855     3.5176    -0.7326 C.3     
  35 C35          -10.1939     4.4484     0.4418 C.3     
  36 C36           -9.0256     4.4276     1.4296 C.3     
  37 C37           -9.3294     5.3444     2.5864 C.2     
  38 O38          -10.3772     5.9544     2.6177 O.2     
  39 N39           -8.4368     5.4864     3.5861 N.am    
  40 C40          -14.6884     2.9904    -1.2311 C.2     
  41 O41          -14.6199     3.0927    -0.0246 O.2     
  42 N42          -12.2624     2.9905    -1.1693 N.am    
  43 C43          -13.4279     2.9178    -2.0540 C.3     
  44 C44          -13.3993     1.5982    -2.8278 C.3     
  45 C45          -18.2443     2.3482    -1.7844 C.2     
  46 O46          -18.0439     1.8639    -2.8781 O.2     
  47 N47          -15.8918     2.9415    -1.8361 N.am    
  48 C48          -17.1171     3.0120    -1.0362 C.3     
  49 C49          -17.4718     4.4772    -0.7746 C.3     
  50 C50          -16.3855     5.1180     0.0916 C.3     
  51 C51          -16.7348     6.5612     0.3493 C.2     
  52 O52          -17.7524     7.0309    -0.1143 O.2     
  53 N53          -15.9164     7.3298     1.0948 N.am    
  54 C54          -21.8865     2.2171    -1.5007 C.2     
  55 O55          -21.9067     3.0773    -0.6461 O.2     
  56 N56          -19.4752     2.2928    -1.2382 N.am    
  57 C57          -20.5710     1.6474    -1.9655 C.3     
  58 C58          -20.5440     0.1414    -1.6971 C.3     
  59 C59          -19.2628    -0.4577    -2.2806 C.3     
  60 C60          -19.2359    -1.9638    -2.0122 C.3     
  61 N61          -18.0091    -2.5375    -2.5708 N.pl3   
  62 C62          -17.7637    -3.8849    -2.4509 C.2     
  63 N63          -18.6225    -4.6519    -1.8402 N.2     
  64 N64          -16.6124    -4.4233    -2.9752 N.pl3   
  65 C65          -25.4151     1.3174    -1.8216 C.2     
  66 O66          -25.2920     0.4821    -2.6923 O.2     
  67 N67          -23.0405     1.7705    -2.0348 N.am    
  68 C68          -24.3194     2.3242    -1.5830 C.3     
  69 C69          -24.6247     3.6047    -2.3628 C.3     
  70 C70          -23.5402     4.6458    -2.0785 C.3     
  71 C71          -23.8455     5.9263    -2.8582 C.3     
  72 N72          -22.8070     6.9231    -2.5860 N.pl3   
  73 C73          -22.8702     8.1614    -3.1801 C.2     
  74 N74          -23.8539     8.4483    -3.9856 N.2     
  75 N75          -21.8956     9.0969    -2.9246 N.pl3   
  76 C76          -28.2219     0.3453    -2.5109 C.2     
  77 O77          -27.7758     1.0717    -3.3736 O.2     
  78 N78          -26.5318     1.3453    -1.0676 N.am    
  79 C79          -27.6294     0.3689    -1.1255 C.3     
  80 C80          -28.6969     0.8185    -0.1057 C.3     
  81 C81          -28.3994     2.3317     0.0644 C.3     
  82 C82          -26.8520     2.3564    -0.0436 C.3     
  83 C83          -31.2496    -0.9874    -4.0664 C.2     
  84 O84          -31.7369    -1.2825    -2.9957 O.2     
  85 N85          -29.2475    -0.4829    -2.7912 N.am    
  86 C86          -29.8235    -0.5058    -4.1381 C.3     
  87 C87          -29.0100    -1.4508    -5.0247 C.3     
  88 C88          -27.5951    -0.8952    -5.1989 C.3     
  89 C89          -26.7938    -1.8260    -6.0721 C.2     
  90 O90          -27.3042    -2.8345    -6.5119 O.2     
  91 N91          -25.5101    -1.5377    -6.3645 N.am    
  92 C92          -33.7639    -2.1608    -6.4465 C.2     
  93 O93          -32.9652    -2.1956    -7.3585 O.2     
  94 N94          -31.9835    -1.0902    -5.1921 N.am    
  95 C95          -33.3700    -1.5584    -5.1225 C.3     
  96 C96          -34.2912    -0.3790    -4.8045 C.3     
  97 C97          -33.9732     0.1540    -3.4060 C.3     
  98 C98          -34.8945     1.3335    -3.0881 C.3     
  99 N99          -34.5900     1.8438    -1.7490 N.pl3   
 100 C100         -35.2950     2.9101    -1.2430 C.2     
 101 N101         -35.0241     3.3642    -0.0517 N.2     
 102 N102         -36.2857     3.4976    -1.9937 N.pl3   
 103 C103         -36.8825    -3.1643    -8.0683 C.2     
 104 O104         -37.5617    -2.6657    -7.1961 O.2     
 105 N105         -35.0037    -2.6609    -6.6171 N.am    
 106 C106         -35.3867    -3.2465    -7.9042 C.3     
 107 C107         -34.9485    -4.7117    -7.9485 C.3     
 108 C108         -33.4210    -4.7887    -7.9072 C.3     
 109 C109         -32.9893    -6.2319    -7.9507 C.2     
 110 O110         -33.8215    -7.1122    -8.0091 O.2     
 111 N111         -31.6785    -6.5443    -7.9249 N.am    
 112 C112         -39.3814    -4.6457   -10.2873 C.2     
 113 O113         -38.5753    -5.4076   -10.7781 O.2     
 114 N114         -37.4653    -3.6449    -9.1845 N.am    
 115 C115         -38.9194    -3.5651    -9.3440 C.3     
 116 C116         -39.2956    -2.1958    -9.9137 C.3     
 117 C117         -38.9391    -1.1064    -8.9002 C.3     
 118 C118         -39.3152     0.2629    -9.4699 C.3     
 119 C119         -38.9588     1.3523    -8.4564 C.3     
 120 N120         -39.3200     2.6669    -9.0034 N.3     
 121 C121         -42.4379    -5.4009   -12.1449 C.2     
 122 O122         -42.9389    -4.3327   -11.8641 O.2     
 123 N123         -40.6902    -4.7656   -10.5857 N.am    
 124 C124         -41.1393    -5.8161   -11.5027 C.3     
 125 C125         -41.3479    -7.1170   -10.7250 C.3     
 126 C126         -45.0685    -7.0399   -14.0831 C.2     
 127 O127         -44.6057    -8.1386   -13.8866 O.2     
 128 N128         -43.0425    -6.2167   -13.0311 N.am    
 129 C129         -44.3049    -5.8131   -13.6554 C.3     
 130 C130         -44.0132    -4.9417   -14.8787 C.3     
 131 C131         -45.3317    -4.5202   -15.5306 C.3     
 132 C132         -43.2379    -3.6962   -14.4445 C.3     
 133 O133         -46.2628    -6.9120   -14.6823 O.3     
 134 C134           4.1957     7.4602    -8.3429 C.2     
 135 O135           4.3526     7.2684    -7.1560 O.2     
 136 C136          18.6959    19.3001    -7.4775 C.3     
 137 C137          17.7764    18.3315    -6.7310 C.3     
 138 C138          16.7538    17.7449    -7.7062 C.3     
 139 C139          15.8343    16.7764    -6.9596 C.3     
 140 C140          14.8117    16.1898    -7.9349 C.3     
 141 C141          13.8922    15.2213    -7.1883 C.3     
 142 C142          12.8696    14.6347    -8.1636 C.3     
 143 C143          11.9502    13.6661    -7.4170 C.3     
 144 C144          10.9276    13.0795    -8.3922 C.3     
 145 C145          10.0081    12.1110    -7.6457 C.3     
 146 C146           8.9855    11.5244    -8.6209 C.3     
 147 C147           8.0660    10.5559    -7.8743 C.3     
 148 C148           7.0434     9.9693    -8.8496 C.3     
 149 C149           6.1239     9.0007    -8.1030 C.3     
 150 C150           5.1013     8.4142    -9.0783 C.3     
 151 H151           2.0550     3.1058    -2.3324 H       
 152 H152           2.8319     4.5618    -2.5383 H       
 153 H153           0.8193     5.7766    -2.1524 H       
 154 H154           0.5754     3.5400    -4.2131 H       
 155 H155          -0.4656     4.9829    -4.1601 H       
 156 H156           1.5308     6.4323    -4.4099 H       
 157 H157           2.5717     4.9894    -4.4629 H       
 158 H158           1.3750     4.2004    -6.4862 H       
 159 H159           0.3341     5.6433    -6.4332 H       
 160 H160           3.0283     6.4900    -6.4564 H       
 161 H161           1.3600     5.4052    -9.9234 H       
 162 H162           3.1371     6.9086    -9.9677 H       
 163 H163          -1.6134     5.5938    -1.7811 H       
 164 H164          -2.5568     2.9105    -1.0658 H       
 165 H165          -1.6058     3.8316     1.0460 H       
 166 H166          -2.6640     5.2539     0.8868 H       
 167 H167          -4.6522     3.7278     0.9054 H       
 168 H168          -2.5104     1.6283     1.4652 H       
 169 H169          -4.2593     1.3655     1.6665 H       
 170 H170          -3.5890     1.6954     0.0509 H       
 171 H171          -3.8437     4.7849     2.9977 H       
 172 H172          -4.5122     3.1663     3.3166 H       
 173 H173          -2.7493     3.4079     3.2705 H       
 174 H174          -5.0602     2.9995    -0.6940 H       
 175 H175          -6.3294     5.3645    -1.8445 H       
 176 H176          -6.2474     2.6870    -3.3050 H       
 177 H177          -7.3241     4.0384    -3.7324 H       
 178 H178          -5.3510     5.4962    -4.0934 H       
 179 H179          -4.2743     4.1447    -3.6660 H       
 180 H180          -5.1797     2.8245    -5.5596 H       
 181 H181          -6.2564     4.1759    -5.9871 H       
 182 H182          -3.6047     5.1441    -5.8992 H       
 183 H183          -4.7858     3.1685    -9.1702 H       
 184 H184          -2.4445     5.4163    -7.9608 H       
 185 H185          -2.9517     4.5801    -9.3269 H       
 186 H186          -8.8789     4.5961    -2.2597 H       
 187 H187          -9.6528     2.5217    -0.3556 H       
 188 H188         -10.3393     5.4636     0.0725 H       
 189 H189         -11.1005     4.1113     0.9443 H       
 190 H190          -8.8802     3.4124     1.7990 H       
 191 H191          -8.1190     4.7647     0.9271 H       
 192 H192          -7.5988     4.9985     3.5610 H       
 193 H193          -8.6323     6.0765     4.3307 H       
 194 H194         -12.3386     2.7131    -0.2430 H       
 195 H195         -13.4038     3.7513    -2.7560 H       
 196 H196         -13.4234     0.7647    -2.1258 H       
 197 H197         -14.2665     1.5442    -3.4860 H       
 198 H198         -12.4876     1.5458    -3.4230 H       
 199 H199         -15.9466     2.8596    -2.8011 H       
 200 H200         -16.9609     2.5008    -0.0863 H       
 201 H201         -17.5409     5.0093    -1.7234 H       
 202 H202         -18.4292     4.5324    -0.2565 H       
 203 H203         -16.3164     4.5859     1.0404 H       
 204 H204         -15.4281     5.0629    -0.4265 H       
 205 H205         -15.1026     6.9542     1.4655 H       
 206 H206         -16.1413     8.2587     1.2606 H       
 207 H207         -19.6355     2.6801    -0.3634 H       
 208 H208         -20.4540     1.8283    -3.0340 H       
 209 H209         -20.5717    -0.0366    -0.6221 H       
 210 H210         -21.4100    -0.3266    -2.1653 H       
 211 H211         -19.2352    -0.2797    -3.3556 H       
 212 H212         -18.3969     0.0103    -1.8124 H       
 213 H213         -19.2635    -2.1418    -0.9372 H       
 214 H214         -20.1018    -2.4318    -2.4804 H       
 215 H215         -17.3699    -1.9667    -3.0253 H       
 216 H216         -18.4494    -5.6026    -1.7557 H       
 217 H217         -15.9732    -3.8525    -3.4297 H       
 218 H218         -16.4393    -5.3739    -2.8906 H       
 219 H219         -23.0243     1.0824    -2.7184 H       
 220 H220         -24.2609     2.5521    -0.5187 H       
 221 H221         -24.6455     3.3839    -3.4300 H       
 222 H222         -25.5939     3.9960    -2.0537 H       
 223 H223         -23.5193     4.8665    -1.0112 H       
 224 H224         -22.5709     4.2545    -2.3876 H       
 225 H225         -23.8663     5.7055    -3.9254 H       
 226 H226         -24.8147     6.3175    -2.5491 H       
 227 H227         -22.0750     6.7096    -1.9865 H       
 228 H228         -23.8984     9.3220    -4.4048 H       
 229 H229         -21.1636     8.8833    -2.3251 H       
 230 H230         -21.9402     9.9705    -3.3438 H       
 231 H231         -27.2581    -0.6221    -0.8644 H       
 232 H232         -29.6997     0.6650    -0.5042 H       
 233 H233         -28.5721     0.2921     0.8406 H       
 234 H234         -28.8594     2.9126    -0.7349 H       
 235 H235         -28.7268     2.6868     1.0416 H       
 236 H236         -26.3985     2.0871     0.9103 H       
 237 H237         -26.5101     3.3409    -0.3626 H       
 238 H238         -29.6043    -1.0639    -2.1013 H       
 239 H239         -29.8000     0.4988    -4.5604 H       
 240 H240         -28.9591    -2.4341    -4.5570 H       
 241 H241         -29.4892    -1.5367    -5.9999 H       
 242 H242         -27.6460     0.0881    -5.6666 H       
 243 H243         -27.1159    -0.8093    -4.2237 H       
 244 H244         -25.1020    -0.7311    -6.0128 H       
 245 H245         -24.9944    -2.1368    -6.9266 H       
 246 H246         -31.5938    -0.8542    -6.0485 H       
 247 H247         -33.4603    -2.3113    -4.3395 H       
 248 H248         -34.1358     0.4116    -5.5386 H       
 249 H249         -35.3294    -0.7090    -4.8402 H       
 250 H250         -34.1286    -0.6366    -2.6719 H       
 251 H251         -32.9350     0.4840    -3.3704 H       
 252 H252         -34.7391     2.1240    -3.8222 H       
 253 H253         -35.9327     1.0035    -3.1238 H       
 254 H254         -33.8909     1.4293    -1.2194 H       
 255 H255         -35.5215     4.1165     0.3053 H       
 256 H256         -36.4873     3.1597    -2.8803 H       
 257 H257         -36.7831     4.2499    -1.6367 H       
 258 H258         -35.6426    -2.6330    -5.8877 H       
 259 H259         -34.9019    -2.6977    -8.7117 H       
 260 H260         -35.3622    -5.2408    -7.0900 H       
 261 H261         -35.3107    -5.1717    -8.8678 H       
 262 H262         -33.0072    -4.2596    -8.7657 H       
 263 H263         -33.0587    -4.3287    -6.9878 H       
 264 H264         -31.0130    -5.8402    -7.8783 H       
 265 H265         -31.4007    -7.4732    -7.9529 H       
 266 H266         -36.9220    -4.0437    -9.8821 H       
 267 H267         -39.3992    -3.6996    -8.3746 H       
 268 H268         -38.7467    -2.0243   -10.8396 H       
 269 H269         -40.3663    -2.1679   -10.1156 H       
 270 H270         -39.4880    -1.2780    -7.9743 H       
 271 H271         -37.8683    -1.1343    -8.6983 H       
 272 H272         -38.7664     0.4344   -10.3958 H       
 273 H273         -40.3860     0.2907    -9.6718 H       
 274 H274         -39.5077     1.1807    -7.5305 H       
 275 H275         -37.8880     1.3244    -8.2545 H       
 276 H276         -40.2956     2.6966    -9.2590 H       
 277 H277         -39.0942     3.4039    -8.3522 H       
 278 H278         -41.3349    -4.1562   -10.1932 H       
 279 H279         -40.3855    -5.9711   -12.2747 H       
 280 H280         -42.1017    -6.9620    -9.9531 H       
 281 H281         -41.6820    -7.8986   -11.4073 H       
 282 H282         -40.4087    -7.4173   -10.2605 H       
 283 H283         -42.6417    -7.0711   -13.2556 H       
 284 H284         -44.8996    -5.2464   -12.9390 H       
 285 H285         -43.4185    -5.5085   -15.5951 H       
 286 H286         -45.9264    -3.9535   -14.8142 H       
 287 H287         -45.1239    -3.8994   -16.4021 H       
 288 H288         -45.8840    -5.4076   -15.8400 H       
 289 H289         -42.2987    -3.9965   -13.9800 H       
 290 H290         -43.0302    -3.0754   -15.3160 H       
 291 H291         -43.8326    -3.1295   -13.7281 H       
 292 H292         -46.7150    -7.7275   -14.9385 H       
 293 H293          19.2166    18.7667    -8.2728 H       
 294 H294          18.1016    20.1056    -7.9090 H       
 295 H295          19.4244    19.7180    -6.7827 H       
 296 H296          18.3706    17.5260    -6.2995 H       
 297 H297          17.2556    18.8649    -5.9357 H       
 298 H298          16.1596    18.5505    -8.1376 H       
 299 H299          17.2746    17.2115    -8.5014 H       
 300 H300          16.4285    15.9709    -6.5282 H       
 301 H301          15.3135    17.3098    -6.1644 H       
 302 H302          14.2175    16.9953    -8.3663 H       
 303 H303          15.3325    15.6564    -8.7301 H       
 304 H304          14.4865    14.4157    -6.7569 H       
 305 H305          13.3715    15.7547    -6.3931 H       
 306 H306          12.2754    15.4402    -8.5950 H       
 307 H307          13.3904    14.1013    -8.9588 H       
 308 H308          12.5444    12.8606    -6.9856 H       
 309 H309          11.4294    14.1995    -6.6218 H       
 310 H310          10.3333    13.8851    -8.8237 H       
 311 H311          11.4483    12.5461    -9.1875 H       
 312 H312          10.6023    11.3055    -7.2142 H       
 313 H313           9.4873    12.6444    -6.8504 H       
 314 H314           8.3912    12.3299    -9.0523 H       
 315 H315           9.5062    10.9910    -9.4161 H       
 316 H316           8.6602     9.7503    -7.4429 H       
 317 H317           7.5452    11.0893    -7.0791 H       
 318 H318           6.4492    10.7748    -9.2810 H       
 319 H319           7.5642     9.4359    -9.6448 H       
 320 H320           6.7181     8.1952    -7.6716 H       
 321 H321           5.6032     9.5341    -7.3078 H       
 322 H322           5.6221     7.8807    -9.8735 H       
 323 H323           4.5071     9.2197    -9.5097 H       
@<TRIPOS>BOND
   1    1    2 2
   2    1    4 1
   3    1   14 am
   4    3    4 1
   5    3  151 1
   6    3  152 1
   7    4    5 1
   8    4  153 1
   9    5    6 1
  10    5  154 1
  11    5  155 1
  12    6    7 1
  13    6  156 1
  14    6  157 1
  15    7    8 1
  16    7  158 1
  17    7  159 1
  18    8    9 1
  19    8  160 1
  20    9   10 2
  21    9   11 1
  22   10  161 1
  23   11  134 am
  24   11  162 1
  25   12   13 2
  26   12   15 1
  27   12   22 am
  28   14   15 1
  29   14  163 1
  30   15   16 1
  31   15  164 1
  32   16   17 1
  33   16  165 1
  34   16  166 1
  35   17   18 1
  36   17   19 1
  37   17  167 1
  38   18  168 1
  39   18  169 1
  40   18  170 1
  41   19  171 1
  42   19  172 1
  43   19  173 1
  44   20   21 2
  45   20   23 1
  46   20   33 am
  47   22   23 1
  48   22  174 1
  49   23   24 1
  50   23  175 1
  51   24   25 1
  52   24  176 1
  53   24  177 1
  54   25   26 1
  55   25  178 1
  56   25  179 1
  57   26   27 1
  58   26  180 1
  59   26  181 1
  60   27   28 1
  61   27  182 1
  62   28   29 2
  63   28   30 1
  64   29  183 1
  65   30  184 1
  66   30  185 1
  67   31   32 2
  68   31   34 1
  69   31   42 am
  70   33   34 1
  71   33  186 1
  72   34   35 1
  73   34  187 1
  74   35   36 1
  75   35  188 1
  76   35  189 1
  77   36   37 1
  78   36  190 1
  79   36  191 1
  80   37   38 2
  81   37   39 am
  82   39  192 1
  83   39  193 1
  84   40   41 2
  85   40   43 1
  86   40   47 am
  87   42   43 1
  88   42  194 1
  89   43   44 1
  90   43  195 1
  91   44  196 1
  92   44  197 1
  93   44  198 1
  94   45   46 2
  95   45   48 1
  96   45   56 am
  97   47   48 1
  98   47  199 1
  99   48   49 1
 100   48  200 1
 101   49   50 1
 102   49  201 1
 103   49  202 1
 104   50   51 1
 105   50  203 1
 106   50  204 1
 107   51   52 2
 108   51   53 am
 109   53  205 1
 110   53  206 1
 111   54   55 2
 112   54   57 1
 113   54   67 am
 114   56   57 1
 115   56  207 1
 116   57   58 1
 117   57  208 1
 118   58   59 1
 119   58  209 1
 120   58  210 1
 121   59   60 1
 122   59  211 1
 123   59  212 1
 124   60   61 1
 125   60  213 1
 126   60  214 1
 127   61   62 1
 128   61  215 1
 129   62   63 2
 130   62   64 1
 131   63  216 1
 132   64  217 1
 133   64  218 1
 134   65   66 2
 135   65   68 1
 136   65   78 am
 137   67   68 1
 138   67  219 1
 139   68   69 1
 140   68  220 1
 141   69   70 1
 142   69  221 1
 143   69  222 1
 144   70   71 1
 145   70  223 1
 146   70  224 1
 147   71   72 1
 148   71  225 1
 149   71  226 1
 150   72   73 1
 151   72  227 1
 152   73   74 2
 153   73   75 1
 154   74  228 1
 155   75  229 1
 156   75  230 1
 157   76   77 2
 158   76   85 am
 159   76   79 1
 160   78   79 1
 161   78   82 1
 162   79   80 1
 163   79  231 1
 164   80   81 1
 165   80  232 1
 166   80  233 1
 167   81   82 1
 168   81  234 1
 169   81  235 1
 170   82  236 1
 171   82  237 1
 172   83   84 2
 173   83   86 1
 174   83   94 am
 175   85   86 1
 176   85  238 1
 177   86   87 1
 178   86  239 1
 179   87   88 1
 180   87  240 1
 181   87  241 1
 182   88   89 1
 183   88  242 1
 184   88  243 1
 185   89   90 2
 186   89   91 am
 187   91  244 1
 188   91  245 1
 189   92   93 2
 190   92   95 1
 191   92  105 am
 192   94   95 1
 193   94  246 1
 194   95   96 1
 195   95  247 1
 196   96   97 1
 197   96  248 1
 198   96  249 1
 199   97   98 1
 200   97  250 1
 201   97  251 1
 202   98   99 1
 203   98  252 1
 204   98  253 1
 205   99  100 1
 206   99  254 1
 207  100  101 2
 208  100  102 1
 209  101  255 1
 210  102  256 1
 211  102  257 1
 212  103  104 2
 213  103  106 1
 214  103  114 am
 215  105  106 1
 216  105  258 1
 217  106  107 1
 218  106  259 1
 219  107  108 1
 220  107  260 1
 221  107  261 1
 222  108  109 1
 223  108  262 1
 224  108  263 1
 225  109  110 2
 226  109  111 am
 227  111  264 1
 228  111  265 1
 229  112  113 2
 230  112  115 1
 231  112  123 am
 232  114  115 1
 233  114  266 1
 234  115  116 1
 235  115  267 1
 236  116  117 1
 237  116  268 1
 238  116  269 1
 239  117  118 1
 240  117  270 1
 241  117  271 1
 242  118  119 1
 243  118  272 1
 244  118  273 1
 245  119  120 1
 246  119  274 1
 247  119  275 1
 248  120  276 1
 249  120  277 1
 250  121  122 2
 251  121  124 1
 252  121  128 am
 253  123  124 1
 254  123  278 1
 255  124  125 1
 256  124  279 1
 257  125  280 1
 258  125  281 1
 259  125  282 1
 260  126  127 2
 261  126  129 1
 262  126  133 1
 263  128  129 1
 264  128  283 1
 265  129  130 1
 266  129  284 1
 267  130  131 1
 268  130  132 1
 269  130  285 1
 270  131  286 1
 271  131  287 1
 272  131  288 1
 273  132  289 1
 274  132  290 1
 275  132  291 1
 276  133  292 1
 277  134  135 2
 278  134  150 1
 279  136  137 1
 280  136  293 1
 281  136  294 1
 282  136  295 1
 283  137  138 1
 284  137  296 1
 285  137  297 1
 286  138  139 1
 287  138  298 1
 288  138  299 1
 289  139  140 1
 290  139  300 1
 291  139  301 1
 292  140  141 1
 293  140  302 1
 294  140  303 1
 295  141  142 1
 296  141  304 1
 297  141  305 1
 298  142  143 1
 299  142  306 1
 300  142  307 1
 301  143  144 1
 302  143  308 1
 303  143  309 1
 304  144  145 1
 305  144  310 1
 306  144  311 1
 307  145  146 1
 308  145  312 1
 309  145  313 1
 310  146  147 1
 311  146  314 1
 312  146  315 1
 313  147  148 1
 314  147  316 1
 315  147  317 1
 316  148  149 1
 317  148  318 1
 318  148  319 1
 319  149  150 1
 320  149  320 1
 321  149  321 1
 322  150  322 1
 323  150  323 1

#	End of record

