#	Name: ASD02408357
#	Creating user name:	WinNT
#	Creation time:	15. 06. 2019 20:21

#	Modifying user name:	WinNT
#	Modification time:	15. 06. 2019 20:21

#	Program:	/corina/corina34_cracker 3.40 0067  02.08.2006

@<TRIPOS>MOLECULE
ASD02408357
  54   58    0    0    0
SMALL
NO_CHARGES


@<TRIPOS>ATOM
   1 C1             0.0882     1.5996    -0.0355 C.2     
   2 C2             0.2200     0.2510    -0.1631 C.2     
   3 N3            -0.8589    -0.5608    -0.0757 N.pl3   
   4 N4            -2.0489    -0.1303     0.1278 N.2     
   5 C5            -2.3166     1.1515     0.2694 C.2     
   6 C6            -1.2125     2.1178     0.1965 C.2     
   7 C7            -0.6659    -1.9396    -0.2150 C.ar    
   8 C8            -1.3861    -2.6502    -1.1706 C.ar    
   9 C9            -1.1941    -4.0120    -1.3074 C.ar    
  10 C10           -0.2829    -4.6700    -0.4912 C.ar    
  11 C11            0.4355    -3.9593     0.4632 C.ar    
  12 C12            0.2488    -2.5988     0.5968 C.ar    
  13 C13           -3.7017     1.6089     0.5029 C.2     
  14 N14           -4.1404     2.3673     1.5516 N.pl3   
  15 N15           -5.5159     2.5711     1.3847 N.2     
  16 C16           -5.9009     1.9678     0.2885 C.2     
  17 C17           -4.7932     1.3562    -0.2988 C.2     
  18 C18           -3.3552     2.8536     2.6046 C.ar    
  19 C19           -3.5321     4.1528     3.0620 C.ar    
  20 C20           -2.7563     4.6294     4.1005 C.ar    
  21 C21           -1.8040     3.8143     4.6846 C.ar    
  22 C22           -1.6254     2.5201     4.2313 C.ar    
  23 C23           -2.4020     2.0358     3.1970 C.ar    
  24 O24           -1.4071     3.3185     0.3213 O.2     
  25 O25            1.1676     2.4224    -0.1216 O.3     
  26 C26            2.4365     1.8063    -0.3508 C.3     
  27 F27           -2.2724    -2.0095    -1.9637 F       
  28 N28           -0.0887    -6.0464    -0.6293 N.3     
  29 C29           -0.1877    -6.4548    -2.0425 C.3     
  30 C30            1.1335    -7.1639    -2.4072 C.3     
  31 C31            1.6775    -7.6202    -1.0278 C.3     
  32 C32            1.2378    -6.4485    -0.1149 C.3     
  33 H33            1.1967    -0.1760    -0.3365 H       
  34 H34           -1.7527    -4.5645    -2.0485 H       
  35 H35            1.1433    -4.4718     1.0979 H       
  36 H36            0.8078    -2.0475     1.3385 H       
  37 H37           -6.9087     1.9501    -0.0993 H       
  38 H38           -4.7925     0.7825    -1.2138 H       
  39 H39           -4.2754     4.7899     2.6060 H       
  40 H40           -2.8932     5.6398     4.4565 H       
  41 H41           -1.1983     4.1894     5.4963 H       
  42 H42           -0.8806     1.8861     4.6893 H       
  43 H43           -2.2621     1.0249     2.8435 H       
  44 H44            2.6581     1.1169     0.4638 H       
  45 H45            2.4096     1.2589    -1.2930 H       
  46 H46            3.2095     2.5733    -0.3982 H       
  47 H47           -1.0248    -7.1407    -2.1725 H       
  48 H48           -0.3236    -5.5766    -2.6737 H       
  49 H49            0.9448    -8.0233    -3.0505 H       
  50 H50            1.8251    -6.4691    -2.8835 H       
  51 H51            1.2125    -8.5550    -0.7145 H       
  52 H52            2.7633    -7.7134    -1.0477 H       
  53 H53            1.9424    -5.6207    -0.1940 H       
  54 H54            1.1582    -6.7827     0.9196 H       
@<TRIPOS>BOND
   1    1    2 2
   2    1   25 1
   3    1    6 1
   4    2    3 1
   5    2   33 1
   6    3    4 1
   7    3    7 1
   8    4    5 2
   9    5    6 1
  10    5   13 1
  11    6   24 2
  12    7    8 ar
  13    7   12 ar
  14    8    9 ar
  15    8   27 1
  16    9   10 ar
  17    9   34 1
  18   10   11 ar
  19   10   28 1
  20   11   12 ar
  21   11   35 1
  22   12   36 1
  23   13   14 1
  24   13   17 2
  25   14   15 1
  26   14   18 1
  27   15   16 2
  28   16   17 1
  29   16   37 1
  30   17   38 1
  31   18   19 ar
  32   18   23 ar
  33   19   20 ar
  34   19   39 1
  35   20   21 ar
  36   20   40 1
  37   21   22 ar
  38   21   41 1
  39   22   23 ar
  40   22   42 1
  41   23   43 1
  42   25   26 1
  43   26   44 1
  44   26   45 1
  45   26   46 1
  46   28   29 1
  47   28   32 1
  48   29   30 1
  49   29   47 1
  50   29   48 1
  51   30   31 1
  52   30   49 1
  53   30   50 1
  54   31   32 1
  55   31   51 1
  56   31   52 1
  57   32   53 1
  58   32   54 1

#	End of record

