#	Name: ASD02508348
#	Creating user name:	WinNT
#	Creation time:	15. 06. 2019 20:24

#	Modifying user name:	WinNT
#	Modification time:	15. 06. 2019 20:24

#	Program:	/corina/corina34_cracker 3.40 0067  02.08.2006

@<TRIPOS>MOLECULE
ASD02508348
  53   57    0    0    0
SMALL
NO_CHARGES


@<TRIPOS>ATOM
   1 C1            -0.0167     1.3818     0.0096 C.ar    
   2 C2             0.0021    -0.0041     0.0020 C.ar    
   3 C3            -1.2098    -0.6984     0.0103 C.ar    
   4 C4            -2.4045    -0.0112     0.0258 C.ar    
   5 C5            -2.4121     1.3718     0.0333 C.ar    
   6 C6            -1.2168     2.0662     0.0299 C.ar    
   7 S7            -3.9416     2.2465     0.0530 S.o2    
   8 O8            -3.6748     3.5334    -0.4871 O.2     
   9 O9            -4.9156     1.3637    -0.4866 O.2     
  10 C10           -4.3778     2.4963     1.7418 C.ar    
  11 C11           -3.9540     3.6337     2.4027 C.ar    
  12 C12           -4.2953     3.8326     3.7322 C.ar    
  13 C13           -5.0673     2.8870     4.3965 C.ar    
  14 C14           -5.4886     1.7473     3.7276 C.ar    
  15 C15           -5.1480     1.5570     2.4018 C.ar    
  16 O16           -3.8641     4.9538     4.3722 O.3     
  17 C17           -4.5362     5.2994     5.5882 C.3     
  18 C18           -4.6678     4.0311     6.4422 C.3     
  19 O19           -5.4202     3.0662     5.6987 O.3     
  20 S20            1.7091    -2.1075    -0.0251 S.o2    
  21 C21            1.8509    -2.6222     1.6541 C.ar    
  22 O22            3.0140    -2.1897    -0.5815 O.2     
  23 O23            0.5898    -2.7980    -0.5632 O.2     
  24 C24            1.4103     1.8820    -0.0013 C.3     
  25 C25            2.2667     0.6053    -0.0163 C.3     
  26 N26            1.3062    -0.5013    -0.0131 N.am    
  27 C27            0.7456    -3.1154     2.3214 C.ar    
  28 C28            0.8568    -3.5192     3.6390 C.ar    
  29 C29            2.0735    -3.4301     4.2887 C.ar    
  30 C30            3.1794    -2.9377     3.6209 C.ar    
  31 C31            3.0692    -2.5380     2.3024 C.ar    
  32 C32           -0.3486    -4.0560     4.3669 C.3     
  33 H33           -1.2108    -1.7784     0.0041 H       
  34 H34           -3.3378    -0.5545     0.0318 H       
  35 H35           -1.2211     3.1461     0.0358 H       
  36 H36           -3.3562     4.3682     1.8834 H       
  37 H37           -6.0866     1.0098     4.2422 H       
  38 H38           -5.4771     0.6688     1.8829 H       
  39 H39           -3.9565     6.0479     6.1286 H       
  40 H40           -5.5265     5.6942     5.3614 H       
  41 H41           -3.6776     3.6333     6.6645 H       
  42 H42           -5.1873     4.2658     7.3712 H       
  43 H43            1.5981     2.4765    -0.8954 H       
  44 H44            1.6152     2.4669     0.8954 H       
  45 H45            2.8795     0.5715    -0.9172 H       
  46 H46            2.8966     0.5619     0.8722 H       
  47 H47           -0.2051    -3.1849     1.8137 H       
  48 H48            2.1603    -3.7449     5.3182 H       
  49 H49            4.1300    -2.8678     4.1287 H       
  50 H50            3.9330    -2.1534     1.7807 H       
  51 H51           -0.4038    -5.1361     4.2312 H       
  52 H52           -0.2632    -3.8272     5.4292 H       
  53 H53           -1.2506    -3.5929     3.9669 H       
@<TRIPOS>BOND
   1    1    2 ar
   2    1   24 1
   3    1    6 ar
   4    2    3 ar
   5    2   26 1
   6    3    4 ar
   7    3   33 1
   8    4    5 ar
   9    4   34 1
  10    5    6 ar
  11    5    7 1
  12    6   35 1
  13    7    8 2
  14    7    9 2
  15    7   10 1
  16   10   11 ar
  17   10   15 ar
  18   11   12 ar
  19   11   36 1
  20   12   13 ar
  21   12   16 1
  22   13   14 ar
  23   13   19 1
  24   14   15 ar
  25   14   37 1
  26   15   38 1
  27   16   17 1
  28   17   18 1
  29   17   39 1
  30   17   40 1
  31   18   19 1
  32   18   41 1
  33   18   42 1
  34   20   21 1
  35   20   22 2
  36   20   23 2
  37   20   26 am
  38   21   27 ar
  39   21   31 ar
  40   24   25 1
  41   24   43 1
  42   24   44 1
  43   25   26 1
  44   25   45 1
  45   25   46 1
  46   27   28 ar
  47   27   47 1
  48   28   29 ar
  49   28   32 1
  50   29   30 ar
  51   29   48 1
  52   30   31 ar
  53   30   49 1
  54   31   50 1
  55   32   51 1
  56   32   52 1
  57   32   53 1

#	End of record

