#	Name: ASD01900239
#	Creating user name:	WinNT
#	Creation time:	15. 06. 2019 19:51

#	Modifying user name:	WinNT
#	Modification time:	15. 06. 2019 19:51

#	Program:	/corina/corina34_cracker 3.40 0067  02.08.2006

@<TRIPOS>MOLECULE
ASD01900239
  57   61    0    0    0
SMALL
NO_CHARGES


@<TRIPOS>ATOM
   1 C1             0.1568     1.3092     0.4949 C.ar    
   2 C2             0.2077    -0.0685     0.4656 C.ar    
   3 C3             1.3970    -0.7229     0.1792 C.ar    
   4 C4             2.5509    -0.0040    -0.0736 C.ar    
   5 C5             2.5174     1.3794    -0.0422 C.ar    
   6 C6             1.3100     2.0458     0.2335 C.ar    
   7 N7             3.6557     2.1445    -0.2706 N.pl3   
   8 C8             3.5024     3.4890    -0.8379 C.3     
   9 N9             2.3903     4.1880    -0.1928 N.am    
  10 C10            1.3061     3.5187     0.2469 C.2     
  11 C11            4.7955     4.2802    -0.6198 C.3     
  12 C12            3.2315     3.3764    -2.3408 C.3     
  13 C13            3.1400     4.7803    -2.9433 C.3     
  14 N14            4.3981     5.4994    -2.7068 N.3     
  15 C15            4.6581     5.6586    -1.2705 C.3     
  16 C16            2.4541     5.5759    -0.0282 C.ar    
  17 C17            1.7429     6.4109    -0.8801 C.ar    
  18 C18            1.8077     7.7805    -0.7155 C.ar    
  19 C19            2.5805     8.3211     0.2973 C.ar    
  20 C20            3.2901     7.4914     1.1476 C.ar    
  21 C21            3.2243     6.1208     0.9909 C.ar    
  22 Cl22           2.6602    10.0433     0.5011 Cl      
  23 C23            4.3972     6.8004    -3.3890 C.3     
  24 C24            5.6472     7.5594    -3.0251 C.ar    
  25 C25            5.5846     8.9201    -2.7885 C.ar    
  26 C26            6.7319     9.6177    -2.4543 C.ar    
  27 C27            7.9439     8.9504    -2.3571 C.ar    
  28 C28            8.0032     7.5885    -2.5946 C.ar    
  29 C29            6.8540     6.8934    -2.9228 C.ar    
  30 F30            9.0655     9.6295    -2.0314 F       
  31 F31            6.6717    10.9474    -2.2233 F       
  32 O32            0.3327     4.1257     0.6509 O.2     
  33 Br33           1.4406    -2.6128     0.1350 Br      
  34 C34            4.3554     6.5824    -4.9028 C.3     
  35 H35           -0.7722     1.8140     0.7147 H       
  36 H36           -0.6848    -0.6423     0.6673 H       
  37 H37            3.4739    -0.5195    -0.2942 H       
  38 H38            4.5356     1.7958    -0.0583 H       
  39 H39            4.9744     4.3982     0.4489 H       
  40 H40            5.6304     3.7454    -1.0727 H       
  41 H41            4.0443     2.8282    -2.8171 H       
  42 H42            2.2916     2.8488    -2.5028 H       
  43 H43            2.9613     4.7042    -4.0159 H       
  44 H44            2.3182     5.3230    -2.4762 H       
  45 H45            3.8303     6.1971    -0.8091 H       
  46 H46            5.5810     6.2209    -1.1285 H       
  47 H47            1.1400     5.9895    -1.6709 H       
  48 H48            1.2552     8.4303    -1.3779 H       
  49 H49            3.8924     7.9159     1.9372 H       
  50 H50            3.7748     5.4736     1.6576 H       
  51 H51            3.5221     7.3721    -3.0800 H       
  52 H52            4.6403     9.4386    -2.8648 H       
  53 H53            8.9464     7.0678    -2.5196 H       
  54 H54            6.9001     5.8297    -3.1037 H       
  55 H55            5.2304     6.0108    -5.2119 H       
  56 H56            3.4512     6.0335    -5.1661 H       
  57 H57            4.3546     7.5478    -5.4090 H       
@<TRIPOS>BOND
   1    1    2 ar
   2    1    6 ar
   3    1   35 1
   4    2    3 ar
   5    2   36 1
   6    3    4 ar
   7    3   33 1
   8    4    5 ar
   9    4   37 1
  10    5    7 1
  11    5    6 ar
  12    6   10 1
  13    7    8 1
  14    7   38 1
  15    8    9 1
  16    8   12 1
  17    8   11 1
  18    9   10 am
  19    9   16 1
  20   10   32 2
  21   11   15 1
  22   11   39 1
  23   11   40 1
  24   12   13 1
  25   12   41 1
  26   12   42 1
  27   13   14 1
  28   13   43 1
  29   13   44 1
  30   14   15 1
  31   14   23 1
  32   15   45 1
  33   15   46 1
  34   16   17 ar
  35   16   21 ar
  36   17   18 ar
  37   17   47 1
  38   18   19 ar
  39   18   48 1
  40   19   20 ar
  41   19   22 1
  42   20   21 ar
  43   20   49 1
  44   21   50 1
  45   23   24 1
  46   23   34 1
  47   23   51 1
  48   24   25 ar
  49   24   29 ar
  50   25   26 ar
  51   25   52 1
  52   26   27 ar
  53   26   31 1
  54   27   28 ar
  55   27   30 1
  56   28   29 ar
  57   28   53 1
  58   29   54 1
  59   34   55 1
  60   34   56 1
  61   34   57 1

#	End of record

