#	Name: ASD03240950
#	Creating user name:	WinNT
#	Creation time:	15. 06. 2019 20:35

#	Modifying user name:	WinNT
#	Modification time:	15. 06. 2019 20:35

#	Program:	/corina/corina34_cracker 3.40 0067  02.08.2006

@<TRIPOS>MOLECULE
ASD03240950
  82   88    0    0    0
SMALL
NO_CHARGES


@<TRIPOS>ATOM
   1 N1            -0.0187     1.5191     0.0416 N.3     
   2 C2            -0.0146     0.0507     0.0277 C.3     
   3 C3             0.6895    -0.4707     1.2825 C.3     
   4 C4             2.1247     0.0621     1.3150 C.3     
   5 C5             2.0936     1.5926     1.2799 C.3     
   6 C6             1.3487     2.0541     0.0252 C.3     
   7 C7             2.8045    -0.3989     2.5785 C.2     
   8 O8             2.2015    -1.0861     3.3755 O.2     
   9 N9             4.0825    -0.0476     2.8228 N.am    
  10 C10            4.6751    -0.3745     4.0440 C.ar    
  11 C11            6.0346    -0.6858     4.0975 C.ar    
  12 C12            6.6214    -1.0092     5.3049 C.ar    
  13 C13            5.8513    -1.0238     6.4713 C.ar    
  14 C14            4.4912    -0.7113     6.4113 C.ar    
  15 C15            3.9117    -0.3838     5.2049 C.ar    
  16 O16            6.7810    -0.6711     2.9609 O.3     
  17 C17            8.1657    -1.0000     3.0897 C.3     
  18 C18            6.4741    -1.3694     7.7641 C.2     
  19 N19            5.7305    -1.3831     8.8881 N.am    
  20 O20            7.6580    -1.6416     7.8151 O.2     
  21 C21           -0.8068     2.0539    -1.0768 C.3     
  22 C22           -0.9944     3.5381    -0.8947 C.ar    
  23 C23           -0.0700     4.4197    -1.4260 C.ar    
  24 C24           -0.2365     5.7796    -1.2630 C.ar    
  25 C25           -1.3397     6.2650    -0.5608 C.ar    
  26 C26           -2.2682     5.3711    -0.0275 C.ar    
  27 C27           -2.0934     4.0136    -0.2018 C.ar    
  28 N28            0.5361    10.6091     0.1046 N.pl3   
  29 C29            0.3876    11.9593     0.2723 C.2     
  30 N30           -0.8217    12.5474     0.2834 N.2     
  31 C31           -1.9270    11.8638     0.1346 C.2     
  32 C32           -1.8473    10.4163    -0.0495 C.ar    
  33 C33           -2.9937     9.6313    -0.2128 C.ar    
  34 C34           -2.8261     8.2610    -0.3823 C.ar    
  35 C35           -1.5241     7.7234    -0.3818 C.ar    
  36 N36           -0.4618     8.4986    -0.2238 N.ar    
  37 C37           -0.5755     9.8052    -0.0606 C.ar    
  38 C38            1.6639    12.4878     0.4107 C.2     
  39 C39            2.5684    11.4370     0.3232 C.2     
  40 N40            1.9052    10.3194     0.1472 N.2     
  41 C41           -4.0031     7.3770    -0.5596 C.ar    
  42 C42           -5.0765     7.4550     0.3264 C.ar    
  43 C43           -6.1696     6.6300     0.1561 C.ar    
  44 C44           -6.2015     5.7270    -0.8913 C.ar    
  45 C45           -5.1390     5.6449    -1.7734 C.ar    
  46 C46           -4.0431     6.4688    -1.6164 C.ar    
  47 C47            4.0672    11.5606     0.4205 C.3     
  48 H48           -1.0412    -0.3152     0.0088 H       
  49 H49            0.5131    -0.3026    -0.8582 H       
  50 H50            0.1544    -0.1291     2.1685 H       
  51 H51            0.7062    -1.5604     1.2642 H       
  52 H52            2.6715    -0.3111     0.4491 H       
  53 H53            1.5805     1.9665     2.1659 H       
  54 H54            3.1133     1.9769     1.2597 H       
  55 H55            1.8700     1.6914    -0.8607 H       
  56 H56            1.3123     3.1433     0.0045 H       
  57 H57            4.5906     0.4323     2.1502 H       
  58 H58            7.6732    -1.2507     5.3479 H       
  59 H59            3.8945    -0.7225     7.3115 H       
  60 H60            2.8609    -0.1381     5.1608 H       
  61 H61            8.6461    -0.2918     3.7647 H       
  62 H62            8.2637    -2.0085     3.4914 H       
  63 H63            8.6434    -0.9507     2.1112 H       
  64 H64            4.7860    -1.1659     8.8474 H       
  65 H65            6.1397    -1.6102     9.7377 H       
  66 H66           -0.2819     1.8663    -2.0136 H       
  67 H67           -1.7806     1.5649    -1.1018 H       
  68 H68            0.7839     4.0426    -1.9692 H       
  69 H69            0.4860     6.4668    -1.6779 H       
  70 H70           -3.1242     5.7409     0.5175 H       
  71 H71           -2.8138     3.3206     0.2072 H       
  72 H72           -2.8850    12.3622     0.1479 H       
  73 H73           -3.9781    10.0755    -0.2079 H       
  74 H74            1.9095    13.5289     0.5593 H       
  75 H75           -5.0525     8.1594     1.1447 H       
  76 H76           -7.0016     6.6893     0.8421 H       
  77 H77           -7.0590     5.0833    -1.0207 H       
  78 H78           -5.1691     4.9375    -2.5889 H       
  79 H79           -3.2162     6.4070    -2.3082 H       
  80 H80            4.3734    11.4582     1.4615 H       
  81 H81            4.5358    10.7770    -0.1749 H       
  82 H82            4.3765    12.5361     0.0451 H       
@<TRIPOS>BOND
   1    1    2 1
   2    1    6 1
   3    1   21 1
   4    2    3 1
   5    2   48 1
   6    2   49 1
   7    3    4 1
   8    3   50 1
   9    3   51 1
  10    4    5 1
  11    4    7 1
  12    4   52 1
  13    5    6 1
  14    5   53 1
  15    5   54 1
  16    6   55 1
  17    6   56 1
  18    7    8 2
  19    7    9 am
  20    9   10 1
  21    9   57 1
  22   10   11 ar
  23   10   15 ar
  24   11   12 ar
  25   11   16 1
  26   12   13 ar
  27   12   58 1
  28   13   14 ar
  29   13   18 1
  30   14   15 ar
  31   14   59 1
  32   15   60 1
  33   16   17 1
  34   17   61 1
  35   17   62 1
  36   17   63 1
  37   18   19 am
  38   18   20 2
  39   19   64 1
  40   19   65 1
  41   21   22 1
  42   21   66 1
  43   21   67 1
  44   22   23 ar
  45   22   27 ar
  46   23   24 ar
  47   23   68 1
  48   24   25 ar
  49   24   69 1
  50   25   26 ar
  51   25   35 1
  52   26   27 ar
  53   26   70 1
  54   27   71 1
  55   28   29 1
  56   28   37 1
  57   28   40 1
  58   29   30 1
  59   29   38 2
  60   30   31 2
  61   31   32 1
  62   31   72 1
  63   32   33 ar
  64   32   37 ar
  65   33   34 ar
  66   33   73 1
  67   34   35 ar
  68   34   41 1
  69   35   36 ar
  70   36   37 ar
  71   38   39 1
  72   38   74 1
  73   39   40 2
  74   39   47 1
  75   41   42 ar
  76   41   46 ar
  77   42   43 ar
  78   42   75 1
  79   43   44 ar
  80   43   76 1
  81   44   45 ar
  82   44   77 1
  83   45   46 ar
  84   45   78 1
  85   46   79 1
  86   47   80 1
  87   47   81 1
  88   47   82 1

#	End of record

