#	Name: ASD01916930
#	Creating user name:	WinNT
#	Creation time:	15. 06. 2019 20:08

#	Modifying user name:	WinNT
#	Modification time:	15. 06. 2019 20:08

#	Program:	/corina/corina34_cracker 3.40 0067  02.08.2006

@<TRIPOS>MOLECULE
ASD01916930
  58   62    0    0    0
SMALL
NO_CHARGES


@<TRIPOS>ATOM
   1 C1            -0.1005     1.5901    -0.1217 C.ar    
   2 C2            -0.1578     0.2237     0.1003 C.ar    
   3 C3             1.0095    -0.5072     0.2512 C.ar    
   4 C4             2.2347     0.1236     0.1808 C.ar    
   5 C5             2.2969     1.4976    -0.0424 C.ar    
   6 C6             1.1204     2.2288    -0.1935 C.ar    
   7 C7             3.6123     2.1803    -0.1183 C.2     
   8 N8             4.8044     1.5873     0.0106 N.2     
   9 N9             3.7952     3.4660    -0.3291 N.2     
  10 N10            5.1819     3.6874    -0.3254 N.pl3   
  11 C11            5.7611     2.4833    -0.1098 C.2     
  12 C12            7.2146     2.2203    -0.0245 C.ar    
  13 C13            5.8664     4.9678    -0.5209 C.3     
  14 C14            6.0368     5.6546     0.8096 C.2     
  15 O15            5.6269     5.1265     1.8216 O.2     
  16 N16            6.6448     6.8557     0.8751 N.am    
  17 C17            6.8214     7.5432     2.1632 C.3     
  18 C18            8.2928     7.9484     2.3010 C.3     
  19 N19            8.6958     8.7259     1.1216 N.3     
  20 C20            8.6077     7.9200    -0.1035 C.3     
  21 C21            7.1547     7.5108    -0.3390 C.3     
  22 C22            9.9823     9.2529     1.2838 C.ar    
  23 C23           10.2231    10.2206     2.2567 C.ar    
  24 C24           11.0222     8.8090     0.4801 C.ar    
  25 C25           11.4982    10.7382     2.4131 C.ar    
  26 C26           12.5287    10.2951     1.6045 C.ar    
  27 C27           12.2919     9.3306     0.6426 C.ar    
  28 C28            8.1006     3.2651     0.2400 C.ar    
  29 C29            9.4546     3.0148     0.3184 C.ar    
  30 C30            9.9355     1.7281     0.1346 C.ar    
  31 C31            9.0596     0.6869    -0.1289 C.ar    
  32 C32            7.7033     0.9257    -0.2027 C.ar    
  33 F33           11.2628     1.4880     0.2120 F       
  34 F34           -1.3554    -0.3977     0.1703 F       
  35 O35            9.2083    10.6562     3.0507 O.3     
  36 H36           -1.0127     2.1554    -0.2433 H       
  37 H37            0.9604    -1.5720     0.4245 H       
  38 H38            3.1441    -0.4468     0.2989 H       
  39 H39            1.1642     3.2939    -0.3670 H       
  40 H40            6.8452     4.7921    -0.9671 H       
  41 H41            5.2736     5.5994    -1.1825 H       
  42 H42            6.1923     8.4329     2.1927 H       
  43 H43            6.5489     6.8715     2.9772 H       
  44 H44            8.4206     8.5550     3.1976 H       
  45 H45            8.9110     7.0537     2.3755 H       
  46 H46            8.9639     8.5060    -0.9507 H       
  47 H47            9.2215     7.0257     0.0045 H       
  48 H48            7.1007     6.8196    -1.1802 H       
  49 H49            6.5546     8.3960    -0.5498 H       
  50 H50           10.8399     8.0557    -0.2720 H       
  51 H51           11.6876    11.4885     3.1666 H       
  52 H52           13.5222    10.7004     1.7275 H       
  53 H53           13.0999     8.9873     0.0137 H       
  54 H54            7.7269     4.2683     0.3827 H       
  55 H55           10.1413     3.8229     0.5232 H       
  56 H56            9.4394    -0.3140    -0.2717 H       
  57 H57            7.0215     0.1136    -0.4077 H       
  58 H58            9.1501    10.1991     3.9009 H       
@<TRIPOS>BOND
   1    1    2 ar
   2    1    6 ar
   3    1   36 1
   4    2    3 ar
   5    2   34 1
   6    3    4 ar
   7    3   37 1
   8    4    5 ar
   9    4   38 1
  10    5    6 ar
  11    5    7 1
  12    6   39 1
  13    7    8 1
  14    7    9 2
  15    8   11 2
  16    9   10 1
  17   10   11 1
  18   10   13 1
  19   11   12 1
  20   12   28 ar
  21   12   32 ar
  22   13   14 1
  23   13   40 1
  24   13   41 1
  25   14   15 2
  26   14   16 am
  27   16   17 1
  28   16   21 1
  29   17   18 1
  30   17   42 1
  31   17   43 1
  32   18   19 1
  33   18   44 1
  34   18   45 1
  35   19   20 1
  36   19   22 1
  37   20   21 1
  38   20   46 1
  39   20   47 1
  40   21   48 1
  41   21   49 1
  42   22   23 ar
  43   22   24 ar
  44   23   25 ar
  45   23   35 1
  46   24   27 ar
  47   24   50 1
  48   25   26 ar
  49   25   51 1
  50   26   27 ar
  51   26   52 1
  52   27   53 1
  53   28   29 ar
  54   28   54 1
  55   29   30 ar
  56   29   55 1
  57   30   31 ar
  58   30   33 1
  59   31   32 ar
  60   31   56 1
  61   32   57 1
  62   35   58 1

#	End of record

