#	Name: ASD01910772
#	Creating user name:	WinNT
#	Creation time:	15. 06. 2019 19:56

#	Modifying user name:	WinNT
#	Modification time:	15. 06. 2019 19:56

#	Program:	/corina/corina34_cracker 3.40 0067  02.08.2006

@<TRIPOS>MOLECULE
ASD01910772
  49   51    0    0    0
SMALL
NO_CHARGES


@<TRIPOS>ATOM
   1 C1            -0.0187     1.5289     0.0104 C.3     
   2 C2             0.0021    -0.0041     0.0020 C.3     
   3 C3             0.6326    -0.4715    -1.3067 C.3     
   4 C4             2.0830     0.0051    -1.4168 C.3     
   5 C5             2.1762     1.5278    -1.2120 C.3     
   6 C6             1.4269     2.0247    -0.0007 C.3     
   7 N7             2.4761    -0.1741    -2.8382 N.am    
   8 C8             2.1405     1.0589    -3.5687 C.3     
   9 C9             1.5958     2.0713    -2.5337 C.3     
  10 O10            1.4297     3.4537    -0.0045 O.3     
  11 C11            2.1076     1.5480     1.2143 C.1     
  12 C12            3.0431    -1.2762    -3.3677 C.2     
  13 O13            3.2751    -2.2385    -2.6629 O.2     
  14 C14            3.3127     0.7039     3.3652 C.ar    
  15 C15            2.8100     1.0325     4.6247 C.ar    
  16 C16            4.4603    -0.0833     3.2622 C.ar    
  17 C17            5.0904    -0.5316     4.4048 C.ar    
  18 C18            4.5869    -0.2023     5.6506 C.ar    
  19 C19            3.4495     0.5778     5.7595 C.ar    
  20 C20            2.6505     1.1677     2.1832 C.1     
  21 C21            0.7440     4.0393     1.1041 C.3     
  22 O22            3.3524    -1.3110    -4.6776 O.3     
  23 C23            4.2384    -2.3831    -6.6765 C.3     
  24 C24            3.9607    -2.5303    -5.1791 C.3     
  25 H25           -0.5399     1.8947    -0.8742 H       
  26 H26           -0.5229     1.8851     0.9088 H       
  27 H27            0.5925    -0.3671     0.8433 H       
  28 H28           -1.0168    -0.3847     0.0743 H       
  29 H29            0.6096    -1.5605    -1.3463 H       
  30 H30            0.0597    -0.0714    -2.1432 H       
  31 H31            2.7354    -0.5337    -0.7297 H       
  32 H32            3.2231     1.8224    -1.1396 H       
  33 H33            3.0337     1.4615    -4.0466 H       
  34 H34            1.3783     0.8495    -4.3191 H       
  35 H35            0.5061     2.0580    -2.5138 H       
  36 H36            1.9693     3.0747    -2.7382 H       
  37 H37            1.9224     1.6417     4.7110 H       
  38 H38            4.8541    -0.3413     2.2903 H       
  39 H39            5.9784    -1.1413     4.3265 H       
  40 H40            5.0838    -0.5558     6.5420 H       
  41 H41            3.0615     0.8314     6.7350 H       
  42 H42            0.7914     5.1256     1.0281 H       
  43 H43           -0.2981     3.7197     1.0967 H       
  44 H44            1.2156     3.7191     2.0332 H       
  45 H45            3.3018    -2.2009    -7.2035 H       
  46 H46            4.9162    -1.5452    -6.8397 H       
  47 H47            4.6950    -3.2985    -7.0530 H       
  48 H48            4.8972    -2.7125    -4.6521 H       
  49 H49            3.2829    -3.3682    -5.0159 H       
@<TRIPOS>BOND
   1    1    2 1
   2    1    6 1
   3    1   25 1
   4    1   26 1
   5    2    3 1
   6    2   27 1
   7    2   28 1
   8    3    4 1
   9    3   29 1
  10    3   30 1
  11    4    5 1
  12    4    7 1
  13    4   31 1
  14    5    6 1
  15    5    9 1
  16    5   32 1
  17    6   10 1
  18    6   11 1
  19    7    8 1
  20    7   12 am
  21    8    9 1
  22    8   33 1
  23    8   34 1
  24    9   35 1
  25    9   36 1
  26   10   21 1
  27   11   20 3
  28   12   22 1
  29   12   13 2
  30   14   15 ar
  31   14   16 ar
  32   14   20 1
  33   15   19 ar
  34   15   37 1
  35   16   17 ar
  36   16   38 1
  37   17   18 ar
  38   17   39 1
  39   18   19 ar
  40   18   40 1
  41   19   41 1
  42   21   42 1
  43   21   43 1
  44   21   44 1
  45   22   24 1
  46   23   24 1
  47   23   45 1
  48   23   46 1
  49   23   47 1
  50   24   48 1
  51   24   49 1

#	End of record

