#	Name: ASD01915490
#	Creating user name:	WinNT
#	Creation time:	15. 06. 2019 20:05

#	Modifying user name:	WinNT
#	Modification time:	15. 06. 2019 20:05

#	Program:	/corina/corina34_cracker 3.40 0067  02.08.2006

@<TRIPOS>MOLECULE
ASD01915490
  46   49    0    0    0
SMALL
NO_CHARGES


@<TRIPOS>ATOM
   1 C1            -0.0168     1.3871     0.0097 C.ar    
   2 C2             0.0021    -0.0041     0.0020 C.ar    
   3 N3             1.1069     2.0889     0.0027 N.ar    
   4 C4             2.2857     1.5048    -0.0117 C.ar    
   5 C5             2.3819     0.1109    -0.0190 C.ar    
   6 C6             1.2174    -0.6616    -0.0125 C.ar    
   7 C7             3.5513     2.3227    -0.0222 C.3     
   8 C8             4.6417     1.6039     0.7686 C.3     
   9 N9             4.7906     0.2218     0.3207 N.am    
  10 C10            3.7177    -0.5151    -0.0321 C.2     
  11 O11            3.8494    -1.6795    -0.3561 O.2     
  12 C12            6.1274    -0.3736     0.2530 C.3     
  13 C13            6.4587    -1.0368     1.5914 C.3     
  14 O14           -1.2062     2.0361     0.0188 O.3     
  15 C15           -1.1659     3.4645     0.0264 C.3     
  16 C16           -2.5719     4.0067     0.0359 C.ar    
  17 C17           -3.2111     4.2489     1.2375 C.ar    
  18 C18           -4.5009     4.7462     1.2462 C.ar    
  19 C19           -5.1513     5.0018     0.0535 C.ar    
  20 C20           -4.5117     4.7605    -1.1480 C.ar    
  21 C21           -3.2204     4.2672    -1.1568 C.ar    
  22 C22            7.7943    -1.7990     1.5874 C.3     
  23 C23            8.0262    -1.2422     3.0019 C.3     
  24 C24            7.0981    -0.0799     2.6115 C.3     
  25 H25           -0.9219    -0.5633     0.0077 H       
  26 H26            1.2658    -1.7405    -0.0183 H       
  27 H27            3.8831     2.4630    -1.0509 H       
  28 H28            3.3575     3.2953     0.4301 H       
  29 H29            5.5875     2.1282     0.6317 H       
  30 H30            4.3798     1.6108     1.8266 H       
  31 H31            6.1522    -1.1219    -0.5392 H       
  32 H32            6.8612     0.4041     0.0414 H       
  33 H33            5.6272    -1.6148     1.9947 H       
  34 H34           -0.6378     3.8083     0.9158 H       
  35 H35           -0.6462     3.8180    -0.8642 H       
  36 H36           -2.7030     4.0492     2.1693 H       
  37 H37           -5.0006     4.9347     2.1850 H       
  38 H38           -6.1592     5.3897     0.0604 H       
  39 H39           -5.0199     4.9598    -2.0798 H       
  40 H40           -2.7207     4.0787    -2.0955 H       
  41 H41            7.6785    -2.8825     1.5582 H       
  42 H42            8.5063    -1.4284     0.8500 H       
  43 H43            7.6236    -1.8759     3.7921 H       
  44 H44            9.0557    -0.9356     3.1871 H       
  45 H45            7.6198     0.7608     2.1541 H       
  46 H46            6.4204     0.2245     3.4090 H       
@<TRIPOS>BOND
   1    1    2 ar
   2    1    3 ar
   3    1   14 1
   4    2    6 ar
   5    2   25 1
   6    3    4 ar
   7    4    5 ar
   8    4    7 1
   9    5    6 ar
  10    5   10 1
  11    6   26 1
  12    7    8 1
  13    7   27 1
  14    7   28 1
  15    8    9 1
  16    8   29 1
  17    8   30 1
  18    9   10 am
  19    9   12 1
  20   10   11 2
  21   12   13 1
  22   12   31 1
  23   12   32 1
  24   13   22 1
  25   13   24 1
  26   13   33 1
  27   14   15 1
  28   15   16 1
  29   15   34 1
  30   15   35 1
  31   16   17 ar
  32   16   21 ar
  33   17   18 ar
  34   17   36 1
  35   18   19 ar
  36   18   37 1
  37   19   20 ar
  38   19   38 1
  39   20   21 ar
  40   20   39 1
  41   21   40 1
  42   22   23 1
  43   22   41 1
  44   22   42 1
  45   23   24 1
  46   23   43 1
  47   23   44 1
  48   24   45 1
  49   24   46 1

#	End of record

