#	Name: ASD08150151
#	Creating user name:	WinNT
#	Creation time:	15. 06. 2019 21:15

#	Modifying user name:	WinNT
#	Modification time:	15. 06. 2019 21:15

#	Program:	/corina/corina34_cracker 3.40 0067  02.08.2006

@<TRIPOS>MOLECULE
ASD08150151
  77   81    0    0    0
SMALL
NO_CHARGES


@<TRIPOS>ATOM
   1 O1             0.8480     0.8722     1.8909 O.3     
   2 C2             0.9650    -0.4316     1.6157 C.2     
   3 N3             2.0674    -0.7419     0.9199 N.am    
   4 C4             2.8322     0.4887     0.6662 C.3     
   5 C5             1.9879     1.5901     1.3359 C.3     
   6 O6             0.1468    -1.2590     1.9651 O.2     
   7 C7             1.5233     2.6148     0.2991 C.3     
   8 C8             2.7843     2.2743     2.4487 C.3     
   9 C9             4.0232    -3.4882    -0.2792 C.ar    
  10 N10            3.6739    -2.2730     0.1157 N.ar    
  11 C11            2.4294    -2.0187     0.5058 C.ar    
  12 C12            1.4917    -3.0509     0.4944 C.ar    
  13 C13            1.8967    -4.3058     0.0749 C.ar    
  14 N14            3.1549    -4.4884    -0.3009 N.ar    
  15 N15            5.3264    -3.7172    -0.6846 N.3     
  16 C16            5.6371    -5.1541    -0.6726 C.3     
  17 C17            7.0647    -5.3663    -1.1834 C.3     
  18 O18            7.9716    -4.6095    -0.3770 O.3     
  19 C19            7.6985    -3.2057    -0.3663 C.3     
  20 C20            6.2774    -2.9716     0.1527 C.3     
  21 Cl21           0.7702    -5.6263     0.0417 Cl      
  22 C22            2.9548     0.7449    -0.8372 C.3     
  23 O23            3.5909    -0.3726    -1.4606 O.3     
  24 Si24           3.9432    -0.1415    -3.0362 Si      
  25 C25            4.8104     1.4997    -3.2460 C.ar    
  26 C26            6.1657     1.6025    -2.9941 C.ar    
  27 C27            6.8074     2.8170    -3.1493 C.ar    
  28 C28            6.0939     3.9286    -3.5570 C.ar    
  29 C29            4.7388     3.8256    -3.8098 C.ar    
  30 C30            4.0980     2.6101    -3.6588 C.ar    
  31 C31            5.0587    -1.5159    -3.6329 C.ar    
  32 C32            4.5922    -2.8165    -3.6729 C.ar    
  33 C33            5.4177    -3.8336    -4.1144 C.ar    
  34 C34            6.7095    -3.5500    -4.5164 C.ar    
  35 C35            7.1757    -2.2493    -4.4773 C.ar    
  36 C36            6.3488    -1.2315    -4.0399 C.ar    
  37 C37            2.3684    -0.1434    -4.0315 C.3     
  38 C38            1.3471     0.7854    -3.3719 C.3     
  39 C39            2.6615     0.3468    -5.4509 C.3     
  40 C40            1.8033    -1.5641    -4.0891 C.3     
  41 H41            3.8181     0.4286     1.1270 H       
  42 H42            0.8709     3.3454     0.7773 H       
  43 H43            2.3902     3.1231    -0.1232 H       
  44 H44            0.9778     2.1059    -0.4956 H       
  45 H45            3.1249     1.5262     3.1645 H       
  46 H46            3.6462     2.7840     2.0181 H       
  47 H47            2.1492     3.0003     2.9564 H       
  48 H48            0.4727    -2.8749     0.8061 H       
  49 H49            5.5540    -5.5360     0.3449 H       
  50 H50            4.9369    -5.6833    -1.3190 H       
  51 H51            7.3195    -6.4243    -1.1225 H       
  52 H52            7.1339    -5.0335    -2.2190 H       
  53 H53            8.4118    -2.7012     0.2855 H       
  54 H54            7.7862    -2.8102    -1.3782 H       
  55 H55            6.0445    -1.9077     0.1089 H       
  56 H56            6.2046    -3.3186     1.1835 H       
  57 H57            1.9615     0.8825    -1.2645 H       
  58 H58            3.5502     1.6423    -1.0055 H       
  59 H59            6.7232     0.7340    -2.6756 H       
  60 H60            7.8662     2.8975    -2.9518 H       
  61 H61            6.5951     4.8776    -3.6776 H       
  62 H62            4.1813     4.6941    -4.1280 H       
  63 H63            3.0400     2.5288    -3.8599 H       
  64 H64            3.5829    -3.0381    -3.3588 H       
  65 H65            5.0534    -4.8499    -4.1450 H       
  66 H66            7.3547    -4.3448    -4.8607 H       
  67 H67            8.1851    -2.0278    -4.7911 H       
  68 H68            6.7119    -0.2147    -4.0128 H       
  69 H69            1.8358     1.7155    -3.0820 H       
  70 H70            0.5440     1.0012    -4.0766 H       
  71 H71            0.9337     0.3011    -2.4872 H       
  72 H72            3.4744    -0.2408    -5.8776 H       
  73 H73            1.7690     0.2330    -6.0662 H       
  74 H74            2.9501     1.3975    -5.4201 H       
  75 H75            1.5562    -1.8980    -3.0813 H       
  76 H76            0.9043    -1.5727    -4.7054 H       
  77 H77            2.5468    -2.2336    -4.5216 H       
@<TRIPOS>BOND
   1    1    2 1
   2    1    5 1
   3    2    3 am
   4    2    6 2
   5    3    4 1
   6    3   11 1
   7    4    5 1
   8    4   22 1
   9    4   41 1
  10    5    7 1
  11    5    8 1
  12    7   42 1
  13    7   43 1
  14    7   44 1
  15    8   45 1
  16    8   46 1
  17    8   47 1
  18    9   10 ar
  19    9   14 ar
  20    9   15 1
  21   10   11 ar
  22   11   12 ar
  23   12   13 ar
  24   12   48 1
  25   13   14 ar
  26   13   21 1
  27   15   16 1
  28   15   20 1
  29   16   17 1
  30   16   49 1
  31   16   50 1
  32   17   18 1
  33   17   51 1
  34   17   52 1
  35   18   19 1
  36   19   20 1
  37   19   53 1
  38   19   54 1
  39   20   55 1
  40   20   56 1
  41   22   23 1
  42   22   57 1
  43   22   58 1
  44   23   24 1
  45   24   25 1
  46   24   31 1
  47   24   37 1
  48   25   26 ar
  49   25   30 ar
  50   26   27 ar
  51   26   59 1
  52   27   28 ar
  53   27   60 1
  54   28   29 ar
  55   28   61 1
  56   29   30 ar
  57   29   62 1
  58   30   63 1
  59   31   32 ar
  60   31   36 ar
  61   32   33 ar
  62   32   64 1
  63   33   34 ar
  64   33   65 1
  65   34   35 ar
  66   34   66 1
  67   35   36 ar
  68   35   67 1
  69   36   68 1
  70   37   38 1
  71   37   40 1
  72   37   39 1
  73   38   69 1
  74   38   70 1
  75   38   71 1
  76   39   72 1
  77   39   73 1
  78   39   74 1
  79   40   75 1
  80   40   76 1
  81   40   77 1

#	End of record

