#	Name: ASD05730042
#	Creating user name:	WinNT
#	Creation time:	15. 06. 2019 21:02

#	Modifying user name:	WinNT
#	Modification time:	15. 06. 2019 21:02

#	Program:	/corina/corina34_cracker 3.40 0067  02.08.2006

@<TRIPOS>MOLECULE
ASD05730042
  82   87    0    0    0
SMALL
NO_CHARGES


@<TRIPOS>ATOM
   1 N1             0.0244     1.3964    -0.0187 N.3     
   2 C2             0.0331    -0.0037    -0.0195 C.ar    
   3 C3             0.0479    -0.6984     1.1821 C.ar    
   4 C4             0.0565    -2.0796     1.1815 C.ar    
   5 C5             0.0508    -2.7738    -0.0209 C.ar    
   6 C6             0.0360    -2.0795    -1.2238 C.ar    
   7 C7             0.0211    -0.6982    -1.2235 C.ar    
   8 N8             0.0604    -4.1744    -0.0209 N.pl3   
   9 C9            -0.6249    -4.8697    -0.9979 C.ar    
  10 N10           -0.5086    -6.1882    -1.0429 N.ar    
  11 C11           -1.1523    -6.8911    -1.9679 C.ar    
  12 C12           -1.9612    -6.2052    -2.8999 C.ar    
  13 C13           -2.0514    -4.8079    -2.8100 C.ar    
  14 N14           -1.3809    -4.1917    -1.8547 N.ar    
  15 N15           -1.0373    -8.2572    -2.0222 N.am    
  16 C16           -1.6917    -8.9650    -2.9629 C.2     
  17 C17           -2.5384    -8.2845    -3.9449 C.2     
  18 C18           -2.6608    -6.9216    -3.8974 C.2     
  19 C19           -0.1936    -8.9531    -1.0474 C.3     
  20 O20           -1.5782   -10.1773    -2.9973 O.2     
  21 C21           -3.2572    -9.0639    -4.9799 C.ar    
  22 C22           -2.5424    -9.7635    -5.9515 C.ar    
  23 C23           -1.0464    -9.9397    -0.2472 C.3     
  24 C24           -4.6513    -9.1054    -4.9828 C.ar    
  25 C25           -5.3149    -9.8329    -5.9492 C.ar    
  26 C26           -4.6002   -10.5207    -6.9139 C.ar    
  27 C27           -3.2174   -10.4876    -6.9130 C.ar    
  28 C28           -1.2044     1.9151     0.5981 C.3     
  29 Cl29           0.0026     0.1702    -2.7266 Cl      
  30 C30            1.2153     1.9300     0.6571 C.3     
  31 C31            1.2081     3.4579     0.5670 C.3     
  32 N32           -0.0208     3.9766     1.1838 N.3     
  33 C33           -1.2116     3.4430     0.5079 C.3     
  34 C34            0.9127    -9.7137    -1.7812 C.3     
  35 S35           -7.0761    -9.8865    -5.9546 S.o2    
  36 C36           -7.5685    -8.4841    -6.9946 C.3     
  37 O37           -7.3873   -11.1160    -6.5955 O.2     
  38 O38           -7.4379    -9.6542    -4.6002 O.2     
  39 C39           -9.0933    -8.3459    -6.9786 C.3     
  40 C40           -6.9415    -7.1979    -6.4495 C.3     
  41 C41           -7.4092    -6.0105    -7.2941 C.3     
  42 N42           -8.8741    -5.9208    -7.2460 N.3     
  43 C43           -9.4987    -7.1252    -7.8079 C.3     
  44 C44           -9.3503    -4.7121    -7.9317 C.3     
  45 H45            0.0531    -0.1589     2.1177 H       
  46 H46            0.0680    -2.6198     2.1166 H       
  47 H47            0.0315    -2.6195    -2.1590 H       
  48 H48            0.5484    -4.6561     0.6652 H       
  49 H49           -2.6601    -4.2488    -3.5052 H       
  50 H50           -3.2809    -6.4016    -4.6126 H       
  51 H51            0.2534    -8.2262    -0.3693 H       
  52 H52           -1.4627    -9.7383    -5.9517 H       
  53 H53           -1.4935   -10.6666    -0.9253 H       
  54 H54           -0.4188   -10.4575     0.4781 H       
  55 H55           -1.8346    -9.3979     0.2756 H       
  56 H56           -5.2102    -8.5695    -4.2300 H       
  57 H57           -5.1241   -11.0894    -7.6679 H       
  58 H58           -2.6650   -11.0262    -7.6687 H       
  59 H59           -2.0717     1.5157     0.0724 H       
  60 H60           -1.2419     1.6124     1.6445 H       
  61 H61            1.2053     1.6275     1.7043 H       
  62 H62            2.1121     1.5415     0.1745 H       
  63 H63            2.0754     3.8573     1.0926 H       
  64 H64            1.2455     3.7606    -0.4795 H       
  65 H65           -0.0437     3.7723     2.1716 H       
  66 H66           -1.2017     3.7455    -0.5392 H       
  67 H67           -2.1084     3.8315     0.9905 H       
  68 H68            0.4656   -10.4406    -2.4593 H       
  69 H69            1.5202    -9.0108    -2.3513 H       
  70 H70            1.5403   -10.2314    -1.0559 H       
  71 H71           -7.2286    -8.6515    -8.0166 H       
  72 H72           -9.5445    -9.2417    -7.4053 H       
  73 H73           -9.4365    -8.2185    -5.9519 H       
  74 H74           -7.2508    -7.0525    -5.4145 H       
  75 H75           -5.8552    -7.2737    -6.4981 H       
  76 H76           -6.9759    -5.0913    -6.8999 H       
  77 H77           -7.0876    -6.1500    -8.3263 H       
  78 H78           -9.1673    -7.2594    -8.8376 H       
  79 H79          -10.5829    -7.0156    -7.7869 H       
  80 H80           -9.0359    -4.7385    -8.9750 H       
  81 H81          -10.4384    -4.6704    -7.8810 H       
  82 H82           -8.9301    -3.8304    -7.4478 H       
@<TRIPOS>BOND
   1    1    2 1
   2    1   30 1
   3    1   28 1
   4    2    3 ar
   5    2    7 ar
   6    3    4 ar
   7    3   45 1
   8    4    5 ar
   9    4   46 1
  10    5    6 ar
  11    5    8 1
  12    6    7 ar
  13    6   47 1
  14    7   29 1
  15    8    9 1
  16    8   48 1
  17    9   10 ar
  18    9   14 ar
  19   10   11 ar
  20   11   12 ar
  21   11   15 1
  22   12   13 ar
  23   12   18 1
  24   13   14 ar
  25   13   49 1
  26   15   16 am
  27   15   19 1
  28   16   17 1
  29   16   20 2
  30   17   18 2
  31   17   21 1
  32   18   50 1
  33   19   34 1
  34   19   23 1
  35   19   51 1
  36   21   22 ar
  37   21   24 ar
  38   22   27 ar
  39   22   52 1
  40   23   53 1
  41   23   54 1
  42   23   55 1
  43   24   25 ar
  44   24   56 1
  45   25   26 ar
  46   25   35 1
  47   26   27 ar
  48   26   57 1
  49   27   58 1
  50   28   33 1
  51   28   59 1
  52   28   60 1
  53   30   31 1
  54   30   61 1
  55   30   62 1
  56   31   32 1
  57   31   63 1
  58   31   64 1
  59   32   33 1
  60   32   65 1
  61   33   66 1
  62   33   67 1
  63   34   68 1
  64   34   69 1
  65   34   70 1
  66   35   36 1
  67   35   37 2
  68   35   38 2
  69   36   39 1
  70   36   40 1
  71   36   71 1
  72   39   43 1
  73   39   72 1
  74   39   73 1
  75   40   41 1
  76   40   74 1
  77   40   75 1
  78   41   42 1
  79   41   76 1
  80   41   77 1
  81   42   43 1
  82   42   44 1
  83   43   78 1
  84   43   79 1
  85   44   80 1
  86   44   81 1
  87   44   82 1

#	End of record

