#	Name: ASD09890074
#	Creating user name:	WinNT
#	Creation time:	15. 06. 2019 21:24

#	Modifying user name:	WinNT
#	Modification time:	15. 06. 2019 21:24

#	Program:	/corina/corina34_cracker 3.40 0067  02.08.2006

@<TRIPOS>MOLECULE
ASD09890074
  46   49    0    0    0
SMALL
NO_CHARGES


@<TRIPOS>ATOM
   1 C1            -0.0176     1.3671     0.0635 C.2     
   2 N2            -0.0054    -0.0002     0.0337 N.pl3   
   3 C3            -1.2996    -0.4352     0.1168 C.2     
   4 N4            -2.0759     0.6193     0.1944 N.2     
   5 N5            -1.2620     1.7592     0.1658 N.2     
   6 S6            -1.8303    -2.1153     0.1182 S.3     
   7 C7            -3.6339    -1.9735     0.2502 C.3     
   8 C8             1.1335    -0.8132    -0.0653 C.ar    
   9 C9             2.0781    -0.8327     0.9567 C.ar    
  10 C10            3.1862    -1.6522     0.8133 C.ar    
  11 C11            3.3165    -2.4173    -0.3304 C.ar    
  12 N12            2.4032    -2.3755    -1.2810 N.ar    
  13 C13            1.3319    -1.6143    -1.1816 C.ar    
  14 C14           -4.2816    -3.3649     0.1399 C.3     
  15 C15           -5.0388    -3.6047     1.4624 C.3     
  16 C16           -5.3157    -2.1806     2.0051 C.3     
  17 C17           -4.0202    -1.4162     1.6359 C.3     
  18 O18            1.0702     2.1752     0.0035 O.3     
  19 C19            0.8650     3.5150    -0.0919 C.ar    
  20 C20           -0.4179     4.0095    -0.2838 C.ar    
  21 C21            1.9360     4.3898     0.0081 C.ar    
  22 C22            1.7232     5.7564    -0.0892 C.ar    
  23 C23            0.4397     6.2453    -0.2863 C.ar    
  24 C24           -0.6270     5.3716    -0.3809 C.ar    
  25 O25            2.7709     6.6164     0.0088 O.3     
  26 C26            2.4780     8.0108    -0.1007 C.3     
  27 H27           -4.0153    -1.3208    -0.5351 H       
  28 H28            1.9507    -0.2238     1.8395 H       
  29 H29            3.9395    -1.6923     1.5862 H       
  30 H30            4.1781    -3.0578    -0.4474 H       
  31 H31            0.6056    -1.6066    -1.9809 H       
  32 H32           -4.9779    -3.3873    -0.6984 H       
  33 H33           -3.5121    -4.1254     0.0070 H       
  34 H34           -5.9751    -4.1306     1.2759 H       
  35 H35           -4.4179    -4.1652     2.1613 H       
  36 H36           -6.1796    -1.7391     1.5082 H       
  37 H37           -5.4583    -2.1999     3.0855 H       
  38 H38           -3.2348    -1.6233     2.3628 H       
  39 H39           -4.2131    -0.3451     1.5761 H       
  40 H40           -1.2531     3.3288    -0.3577 H       
  41 H41            2.9343     4.0074     0.1618 H       
  42 H42            0.2735     7.3097    -0.3622 H       
  43 H43           -1.6252     5.7541    -0.5346 H       
  44 H44            1.7866     8.3001     0.6907 H       
  45 H45            3.4000     8.5843    -0.0053 H       
  46 H46            2.0241     8.2116    -1.0711 H       
@<TRIPOS>BOND
   1    1    2 1
   2    1   18 1
   3    1    5 2
   4    2    3 1
   5    2    8 1
   6    3    4 2
   7    3    6 1
   8    4    5 1
   9    6    7 1
  10    7   14 1
  11    7   17 1
  12    7   27 1
  13    8    9 ar
  14    8   13 ar
  15    9   10 ar
  16    9   28 1
  17   10   11 ar
  18   10   29 1
  19   11   12 ar
  20   11   30 1
  21   12   13 ar
  22   13   31 1
  23   14   15 1
  24   14   32 1
  25   14   33 1
  26   15   16 1
  27   15   34 1
  28   15   35 1
  29   16   17 1
  30   16   36 1
  31   16   37 1
  32   17   38 1
  33   17   39 1
  34   18   19 1
  35   19   20 ar
  36   19   21 ar
  37   20   24 ar
  38   20   40 1
  39   21   22 ar
  40   21   41 1
  41   22   23 ar
  42   22   25 1
  43   23   24 ar
  44   23   42 1
  45   24   43 1
  46   25   26 1
  47   26   44 1
  48   26   45 1
  49   26   46 1

#	End of record

