#	Name: ASD01940253
#	Creating user name:	WinNT
#	Creation time:	15. 06. 2019 20:12

#	Modifying user name:	WinNT
#	Modification time:	15. 06. 2019 20:12

#	Program:	/corina/corina34_cracker 3.40 0067  02.08.2006

@<TRIPOS>MOLECULE
ASD01940253
  36   38    0    0    0
SMALL
NO_CHARGES


@<TRIPOS>ATOM
   1 C1            -0.5061    -1.9842     2.2406 C.2     
   2 C2            -1.4676    -1.8309     1.3288 C.2     
   3 C3            -2.6114    -2.5774     1.5561 C.2     
   4 C4            -2.5780    -3.3369     2.6527 C.2     
   5 S5            -1.0350    -3.1255     3.4698 S.3     
   6 S6            -1.2956    -0.7591    -0.0591 S.o2    
   7 O7            -2.4654     0.0469    -0.0912 O.2     
   8 O8             0.0176    -0.2206     0.0101 O.2     
   9 N9            -1.3420    -1.7050    -1.4176 N.am    
  10 C10           -0.3067    -2.6138    -1.6743 C.ar    
  11 C11            0.0887    -2.8697    -2.9867 C.ar    
  12 C12            1.1152    -3.7705    -3.2352 C.ar    
  13 C13            1.7434    -4.4122    -2.1792 C.ar    
  14 C14            1.3487    -4.1568    -0.8774 C.ar    
  15 C15            0.3303    -3.2559    -0.6235 C.ar    
  16 N16           -0.5489    -2.2194    -4.0522 N.pl3   
  17 C17           -0.4249    -2.7204    -5.3519 C.ar    
  18 C18           -1.0934    -3.8848    -5.7172 C.ar    
  19 C19           -0.9685    -4.3763    -7.0031 C.ar    
  20 C20           -0.1795    -3.7115    -7.9254 C.ar    
  21 C21            0.4861    -2.5544    -7.5643 C.ar    
  22 C22            0.3608    -2.0540    -6.2824 C.ar    
  23 I23            0.0076    -4.4602    -9.8731 I       
  24 F24           -1.8629    -4.5341    -4.8164 F       
  25 F25            2.7424    -5.2889    -2.4211 F       
  26 F26            1.5014    -4.0219    -4.5051 F       
  27 Br27          -4.1074    -2.5243     0.4006 Br      
  28 H28            0.4525    -1.4870     2.2240 H       
  29 H29           -3.3765    -3.9824     2.9875 H       
  30 H30           -2.0859    -1.6301    -2.0356 H       
  31 H31            1.8401    -4.6592    -0.0574 H       
  32 H32            0.0284    -3.0555     0.3938 H       
  33 H33           -1.0761    -1.4219    -3.8880 H       
  34 H34           -1.4868    -5.2799    -7.2881 H       
  35 H35            1.1015    -2.0387    -8.2866 H       
  36 H36            0.8776    -1.1477    -6.0031 H       
@<TRIPOS>BOND
   1    1    2 2
   2    1    5 1
   3    1   28 1
   4    2    3 1
   5    2    6 1
   6    3    4 2
   7    3   27 1
   8    4    5 1
   9    4   29 1
  10    6    7 2
  11    6    8 2
  12    6    9 am
  13    9   10 1
  14    9   30 1
  15   10   11 ar
  16   10   15 ar
  17   11   12 ar
  18   11   16 1
  19   12   13 ar
  20   12   26 1
  21   13   14 ar
  22   13   25 1
  23   14   15 ar
  24   14   31 1
  25   15   32 1
  26   16   17 1
  27   16   33 1
  28   17   18 ar
  29   17   22 ar
  30   18   19 ar
  31   18   24 1
  32   19   20 ar
  33   19   34 1
  34   20   21 ar
  35   20   23 1
  36   21   22 ar
  37   21   35 1
  38   22   36 1

#	End of record

