#	Name: ASD03320082
#	Creating user name:	WinNT
#	Creation time:	15. 06. 2019 20:36

#	Modifying user name:	WinNT
#	Modification time:	15. 06. 2019 20:36

#	Program:	/corina/corina34_cracker 3.40 0067  02.08.2006

@<TRIPOS>MOLECULE
ASD03320082
  53   56    0    0    0
SMALL
NO_CHARGES


@<TRIPOS>ATOM
   1 C1            -0.0182     1.4732     0.0148 C.2     
   2 C2             0.0015    -0.0045     0.0117 C.ar    
   3 C3             1.2162    -0.6979     0.0013 C.ar    
   4 C4             1.1787    -2.0929    -0.0007 C.ar    
   5 C5            -0.0615    -2.7380     0.0078 C.ar    
   6 N6            -1.1840    -2.0458     0.0171 N.ar    
   7 C7            -1.1921    -0.7285     0.0251 C.ar    
   8 O8             1.0265     2.0950     0.0082 O.2     
   9 N9            -1.1942     2.1315     0.0193 N.am    
  10 C10           -1.2149     3.5271     0.1327 C.ar    
  11 C11           -2.1833     4.2641    -0.5363 C.ar    
  12 C12           -2.2034     5.6402    -0.4236 C.ar    
  13 C13           -1.2565     6.2864     0.3576 C.ar    
  14 C14           -0.2886     5.5509     1.0258 C.ar    
  15 C15           -0.2707     4.1743     0.9187 C.ar    
  16 O16           -1.2770     7.6415     0.4681 O.3     
  17 C17           -0.2724     8.2407     1.2889 C.3     
  18 F18            0.9930     7.9238     0.7834 F       
  19 F19           -0.4392     9.6297     1.2910 F       
  20 F20           -0.3874     7.7552     2.5960 F       
  21 N21            3.1266    -3.3078     1.0795 N.pl3   
  22 N22            4.2481    -4.0115     0.6221 N.2     
  23 C23            4.2354    -4.0083    -0.6867 C.2     
  24 C24            3.1104    -3.3057    -1.1189 C.2     
  25 C25            2.4332    -2.8777    -0.0121 C.2     
  26 C26            2.7613    -3.0804     2.4798 C.3     
  27 C27            2.1954    -4.3719     3.0760 C.3     
  28 C28            1.8720    -4.1432     4.5557 C.3     
  29 C29            3.1397    -3.6763     5.2777 C.3     
  30 C30            3.6692    -2.4117     4.5965 C.3     
  31 O31            3.9202    -2.6851     3.2165 O.3     
  32 C32            2.7131    -3.0614    -2.5519 C.3     
  33 Cl33          -0.1248    -4.4728     0.0055 Cl      
  34 H34            2.1573    -0.1682    -0.0055 H       
  35 H35           -2.1348    -0.2016     0.0374 H       
  36 H36           -2.0262     1.6386    -0.0560 H       
  37 H37           -2.9203     3.7611    -1.1448 H       
  38 H38           -2.9562     6.2135    -0.9441 H       
  39 H39            0.4484     6.0547     1.6336 H       
  40 H40            0.4802     3.6015     1.4426 H       
  41 H41            4.9728    -4.4717    -1.3253 H       
  42 H42            2.0088    -2.2938     2.5361 H       
  43 H43            1.2862    -4.6511     2.5434 H       
  44 H44            2.9325    -5.1695     2.9833 H       
  45 H45            1.0988    -3.3803     4.6463 H       
  46 H46            1.5211    -5.0744     5.0004 H       
  47 H47            2.9059    -3.4581     6.3198 H       
  48 H48            3.8959    -4.4598     5.2295 H       
  49 H49            2.9286    -1.6163     4.6806 H       
  50 H50            4.5950    -2.0991     5.0795 H       
  51 H51            2.0718    -3.8734    -2.8946 H       
  52 H52            2.1731    -2.1172    -2.6233 H       
  53 H53            3.6068    -3.0168    -3.1742 H       
@<TRIPOS>BOND
   1    1    2 1
   2    1    8 2
   3    1    9 am
   4    2    3 ar
   5    2    7 ar
   6    3    4 ar
   7    3   34 1
   8    4    5 ar
   9    4   25 1
  10    5    6 ar
  11    5   33 1
  12    6    7 ar
  13    7   35 1
  14    9   10 1
  15    9   36 1
  16   10   11 ar
  17   10   15 ar
  18   11   12 ar
  19   11   37 1
  20   12   13 ar
  21   12   38 1
  22   13   14 ar
  23   13   16 1
  24   14   15 ar
  25   14   39 1
  26   15   40 1
  27   16   17 1
  28   17   18 1
  29   17   19 1
  30   17   20 1
  31   21   22 1
  32   21   25 1
  33   21   26 1
  34   22   23 2
  35   23   24 1
  36   23   41 1
  37   24   25 2
  38   24   32 1
  39   26   27 1
  40   26   31 1
  41   26   42 1
  42   27   28 1
  43   27   43 1
  44   27   44 1
  45   28   29 1
  46   28   45 1
  47   28   46 1
  48   29   30 1
  49   29   47 1
  50   29   48 1
  51   30   31 1
  52   30   49 1
  53   30   50 1
  54   32   51 1
  55   32   52 1
  56   32   53 1

#	End of record

