#	Name: ASD05313066
#	Creating user name:	WinNT
#	Creation time:	15. 06. 2019 20:58

#	Modifying user name:	WinNT
#	Modification time:	15. 06. 2019 20:58

#	Program:	/corina/corina34_cracker 3.40 0067  02.08.2006

@<TRIPOS>MOLECULE
ASD05313066
  39   42    0    0    0
SMALL
NO_CHARGES


@<TRIPOS>ATOM
   1 C1            -0.0730     0.8186     1.0196 C.2     
   2 C2             0.1131    -0.6179     0.5934 C.3     
   3 N3             0.9364     1.7356     1.0458 N.pl3   
   4 N4             1.4569    -0.7169    -0.0073 N.am    
   5 C5             2.5716    -0.0373     0.6697 C.3     
   6 C6             2.3223     1.4758     0.6609 C.3     
   7 N7            -0.8988     2.6448     1.7005 N.2     
   8 N8            -1.1548     1.4131     1.4207 N.2     
   9 C9             0.3774     2.8948     1.4883 C.2     
  10 N10            2.6002     5.7645     1.7966 N.pl3   
  11 N11            2.3482     4.4234     1.4805 N.2     
  12 C12            1.0698     4.1860     1.6943 C.2     
  13 C13            0.4786     5.3807     2.1541 C.2     
  14 C14            1.4416     6.3258     2.2052 C.2     
  15 C15            3.8971     6.4397     1.7058 C.3     
  16 C16            1.6575    -1.4114    -1.1448 C.2     
  17 O17            2.7494    -1.4007    -1.6790 O.2     
  18 C18            0.5501    -2.1859    -1.7428 C.ar    
  19 C19            0.3185    -2.1308    -3.1194 C.ar    
  20 C20           -0.7195    -2.8581    -3.6712 C.ar    
  21 C21           -1.5273    -3.6384    -2.8622 C.ar    
  22 C22           -1.3022    -3.6958    -1.4982 C.ar    
  23 C23           -0.2658    -2.9803    -0.9354 C.ar    
  24 Cl24          -1.0106    -2.7924    -5.3813 Cl      
  25 Cl25           1.3309    -1.1514    -4.1341 Cl      
  26 H26            0.0436    -1.2752     1.4601 H       
  27 H27           -0.6442    -0.8890    -0.1421 H       
  28 H28            2.6408    -0.3887     1.6991 H       
  29 H29            3.5026    -0.2558     0.1466 H       
  30 H30            2.5023     1.8688    -0.3397 H       
  31 H31            2.9941     1.9598     1.3698 H       
  32 H32           -0.5597     5.5158     2.4185 H       
  33 H33            1.3088     7.3509     2.5183 H       
  34 H34            4.0113     6.8752     0.7131 H       
  35 H35            3.9497     7.2281     2.4566 H       
  36 H36            4.6954     5.7182     1.8801 H       
  37 H37           -2.3374    -4.2047    -3.2976 H       
  38 H38           -1.9368    -4.3064    -0.8730 H       
  39 H39           -0.0892    -3.0305     0.1289 H       
@<TRIPOS>BOND
   1    1    2 1
   2    1    3 1
   3    1    8 2
   4    2    4 1
   5    2   26 1
   6    2   27 1
   7    3    6 1
   8    3    9 1
   9    4    5 1
  10    4   16 am
  11    5    6 1
  12    5   28 1
  13    5   29 1
  14    6   30 1
  15    6   31 1
  16    7    8 1
  17    7    9 2
  18    9   12 1
  19   10   11 1
  20   10   14 1
  21   10   15 1
  22   11   12 2
  23   12   13 1
  24   13   14 2
  25   13   32 1
  26   14   33 1
  27   15   34 1
  28   15   35 1
  29   15   36 1
  30   16   17 2
  31   16   18 1
  32   18   19 ar
  33   18   23 ar
  34   19   20 ar
  35   19   25 1
  36   20   21 ar
  37   20   24 1
  38   21   22 ar
  39   21   37 1
  40   22   23 ar
  41   22   38 1
  42   23   39 1

#	End of record

