#	Name: ASD01917605
#	Creating user name:	WinNT
#	Creation time:	15. 06. 2019 20:09

#	Modifying user name:	WinNT
#	Modification time:	15. 06. 2019 20:09

#	Program:	/corina/corina34_cracker 3.40 0067  02.08.2006

@<TRIPOS>MOLECULE
ASD01917605
  27   28    0    0    0
SMALL
NO_CHARGES


@<TRIPOS>ATOM
   1 C1            -0.0170     1.4037     0.0098 C.2     
   2 C2             0.0021    -0.0041     0.0020 C.2     
   3 C3             1.1981    -0.6525    -0.0129 C.2     
   4 C4             2.3905     0.0911    -0.0203 C.2     
   5 C5             2.3543     1.4408    -0.0127 C.2     
   6 N6             1.1612     2.1051     0.0023 N.pl3   
   7 N7             0.8387     3.4678     0.0127 N.2     
   8 C8            -0.4699     3.5961     0.0259 C.2     
   9 C9            -1.0467     2.3366     0.0190 C.2     
  10 C10           -1.2209     4.9025     0.0401 C.3     
  11 C11           -1.7849     5.1514     1.4404 C.3     
  12 C12           -0.2709     6.0411    -0.3368 C.3     
  13 C13           -2.3695     4.8415    -0.9689 C.3     
  14 Br14           4.0561    -0.8041    -0.0404 Br      
  15 H15           -0.9221    -0.5629     0.0082 H       
  16 H16            1.2309    -1.7320    -0.0187 H       
  17 H17            3.2779     2.0005    -0.0182 H       
  18 H18           -2.1047     2.1193     0.0215 H       
  19 H19           -0.9667     5.1948     2.1592 H       
  20 H20           -2.3282     6.0963     1.4507 H       
  21 H21           -2.4617     4.3402     1.7089 H       
  22 H22            0.1309     5.8639    -1.3344 H       
  23 H23           -0.8142     6.9860    -0.3265 H       
  24 H24            0.5473     6.0846     0.3820 H       
  25 H25           -3.0463     4.0304    -0.7004 H       
  26 H26           -2.9127     5.7865    -0.9586 H       
  27 H27           -1.9676     4.6643    -1.9665 H       
@<TRIPOS>BOND
   1    1    2 1
   2    1    6 1
   3    1    9 2
   4    2    3 2
   5    2   15 1
   6    3    4 1
   7    3   16 1
   8    4    5 2
   9    4   14 1
  10    5    6 1
  11    5   17 1
  12    6    7 1
  13    7    8 2
  14    8    9 1
  15    8   10 1
  16    9   18 1
  17   10   11 1
  18   10   13 1
  19   10   12 1
  20   11   19 1
  21   11   20 1
  22   11   21 1
  23   12   22 1
  24   12   23 1
  25   12   24 1
  26   13   25 1
  27   13   26 1
  28   13   27 1

#	End of record

