#	Name: ASD01231302
#	Creating user name:	WinNT
#	Creation time:	15. 06. 2019 19:15

#	Modifying user name:	WinNT
#	Modification time:	15. 06. 2019 19:15

#	Program:	/corina/corina34_cracker 3.40 0067  02.08.2006

@<TRIPOS>MOLECULE
ASD01231302
  50   52    0    0    0
SMALL
NO_CHARGES


@<TRIPOS>ATOM
   1 C1            -3.9194     0.5957     0.9322 C.3     
   2 C2            -3.3894    -0.8350     1.0476 C.3     
   3 C3            -4.5606    -1.8182     0.9987 C.3     
   4 S4            -2.2578    -1.1734    -0.3292 S.o2    
   5 O5            -2.9700    -1.2301    -1.5576 O.2     
   6 O6            -1.0740    -0.3976    -0.2039 O.2     
   7 N7            -1.7542    -2.7307    -0.0769 N.am    
   8 C8            -1.9329    -3.6386     2.2208 C.3     
   9 C9            -0.9989    -3.0695     1.1318 C.3     
  10 C10           -0.0407    -4.2501     0.8670 C.3     
  11 C11           -0.0266    -5.0454     2.1550 C.ar    
  12 C12            0.8673    -5.9997     2.6089 C.ar    
  13 C13            0.6747    -6.6043     3.8413 C.ar    
  14 C14           -0.4176    -6.2499     4.6205 C.ar    
  15 C15           -1.3067    -5.2978     4.1653 C.ar    
  16 C16           -1.1141    -4.6940     2.9332 C.ar    
  17 O17            1.5528    -7.5417     4.2850 O.3     
  18 C18            2.6273    -7.8295     3.5045 C.ar    
  19 C19            3.6565    -6.9081     3.3716 C.ar    
  20 C20            4.7477    -7.2032     2.5781 C.ar    
  21 C21            4.8153    -8.4156     1.9163 C.ar    
  22 C22            3.7913    -9.3353     2.0470 C.ar    
  23 C23            2.7000    -9.0472     2.8437 C.ar    
  24 S24            6.0547    -6.0337     2.4083 S.o2    
  25 O25            6.6329    -6.3352     1.1458 O.2     
  26 O26            5.4347    -4.7780     2.6491 O.2     
  27 C27            7.2054    -6.4431     3.7495 C.3     
  28 H28           -4.5993     0.7990     1.7595 H       
  29 H29           -3.0850     1.2962     0.9671 H       
  30 H30           -4.4514     0.7110    -0.0121 H       
  31 H31           -2.8574    -0.9503     1.9919 H       
  32 H32           -4.1781    -2.8388     0.9901 H       
  33 H33           -5.1925    -1.6745     1.8751 H       
  34 H34           -5.1456    -1.6419     0.0960 H       
  35 H35           -1.9593    -3.4185    -0.7294 H       
  36 H36           -2.2249    -2.8526     2.9172 H       
  37 H37           -2.8152    -4.0882     1.7652 H       
  38 H38           -0.4525    -2.2030     1.5042 H       
  39 H39           -0.4144    -4.8640     0.0475 H       
  40 H40            0.9595    -3.8816     0.6390 H       
  41 H41            1.7168    -6.2742     2.0012 H       
  42 H42           -0.5717    -6.7187     5.5812 H       
  43 H43           -2.1568    -5.0225     4.7719 H       
  44 H44            3.6041    -5.9610     3.8880 H       
  45 H45            5.6693    -8.6443     1.2960 H       
  46 H46            3.8465   -10.2814     1.5291 H       
  47 H47            1.9022    -9.7676     2.9488 H       
  48 H48            7.5574    -7.4673     3.6264 H       
  49 H49            8.0551    -5.7609     3.7201 H       
  50 H50            6.6953    -6.3470     4.7080 H       
@<TRIPOS>BOND
   1    1    2 1
   2    1   28 1
   3    1   29 1
   4    1   30 1
   5    2    3 1
   6    2    4 1
   7    2   31 1
   8    3   32 1
   9    3   33 1
  10    3   34 1
  11    4    5 2
  12    4    6 2
  13    4    7 am
  14    7    9 1
  15    7   35 1
  16    8    9 1
  17    8   16 1
  18    8   36 1
  19    8   37 1
  20    9   10 1
  21    9   38 1
  22   10   11 1
  23   10   39 1
  24   10   40 1
  25   11   12 ar
  26   11   16 ar
  27   12   13 ar
  28   12   41 1
  29   13   14 ar
  30   13   17 1
  31   14   15 ar
  32   14   42 1
  33   15   16 ar
  34   15   43 1
  35   17   18 1
  36   18   19 ar
  37   18   23 ar
  38   19   20 ar
  39   19   44 1
  40   20   21 ar
  41   20   24 1
  42   21   22 ar
  43   21   45 1
  44   22   23 ar
  45   22   46 1
  46   23   47 1
  47   24   25 2
  48   24   26 2
  49   24   27 1
  50   27   48 1
  51   27   49 1
  52   27   50 1

#	End of record

