#	Name: ASD01911970
#	Creating user name:	WinNT
#	Creation time:	15. 06. 2019 19:58

#	Modifying user name:	WinNT
#	Modification time:	15. 06. 2019 19:58

#	Program:	/corina/corina34_cracker 3.40 0067  02.08.2006

@<TRIPOS>MOLECULE
ASD01911970
  38   40    0    0    0
SMALL
NO_CHARGES


@<TRIPOS>ATOM
   1 C1             0.7747     1.1510    -0.1309 C.ar    
   2 C2             0.5666    -0.2263    -0.1277 C.ar    
   3 C3             1.6753    -1.0609    -0.2488 C.ar    
   4 N4             2.8765    -0.5191    -0.3616 N.ar    
   5 C5             3.0316     0.7897    -0.3605 C.ar    
   6 N6             2.0084     1.6129    -0.2480 N.ar    
   7 N7            -0.7205    -0.7569    -0.0056 N.pl3   
   8 C8            -0.9084    -2.1428    -0.0045 C.ar    
   9 C9            -1.3075    -4.1882    -1.2007 C.ar    
  10 C10           -1.2816    -4.8904    -0.0107 C.ar    
  11 C11           -1.0745    -4.2207     1.1887 C.ar    
  12 C12           -0.8878    -2.8457     1.1917 C.ar    
  13 N13           -1.0485    -4.9332     2.3928 N.am    
  14 C14           -1.5521    -4.3802     3.5140 C.2     
  15 C15           -1.6192    -5.1716     4.7645 C.ar    
  16 O16           -1.9512    -3.2324     3.4991 O.2     
  17 N17           -1.1816    -6.4250     4.7743 N.ar    
  18 C18           -1.1218    -2.8178    -1.2022 C.ar    
  19 F19           -1.1482    -2.1341    -2.3671 F       
  20 C20           -1.8730     0.1386     0.1211 C.3     
  21 C21           -1.2222    -7.1631     5.8627 C.ar    
  22 C22           -1.7272    -6.6562     7.0478 C.ar    
  23 C23           -2.1962    -5.3492     7.0838 C.ar    
  24 C24           -2.1352    -4.5926     5.9207 C.ar    
  25 F25           -2.6951    -4.8248     8.2245 F       
  26 H26           -0.0594     1.8315    -0.0436 H       
  27 H27            1.5558    -2.1342    -0.2501 H       
  28 H28            4.0263     1.1998    -0.4540 H       
  29 H29           -1.4687    -4.7113    -2.1317 H       
  30 H30           -1.4273    -5.9605    -0.0126 H       
  31 H31           -0.7263    -2.3236     2.1232 H       
  32 H32           -0.6681    -5.8250     2.4205 H       
  33 H33           -2.2611     0.3737    -0.8699 H       
  34 H34           -2.6499    -0.3501     0.7090 H       
  35 H35           -1.5654     1.0584     0.6185 H       
  36 H36           -0.8567    -8.1788     5.8311 H       
  37 H37           -1.7565    -7.2709     7.9354 H       
  38 H38           -2.4903    -3.5727     5.9113 H       
@<TRIPOS>BOND
   1    1    2 ar
   2    1    6 ar
   3    1   26 1
   4    2    3 ar
   5    2    7 1
   6    3    4 ar
   7    3   27 1
   8    4    5 ar
   9    5    6 ar
  10    5   28 1
  11    7    8 1
  12    7   20 1
  13    8   18 ar
  14    8   12 ar
  15    9   10 ar
  16    9   18 ar
  17    9   29 1
  18   10   11 ar
  19   10   30 1
  20   11   12 ar
  21   11   13 1
  22   12   31 1
  23   13   14 am
  24   13   32 1
  25   14   15 1
  26   14   16 2
  27   15   17 ar
  28   15   24 ar
  29   17   21 ar
  30   18   19 1
  31   20   33 1
  32   20   34 1
  33   20   35 1
  34   21   22 ar
  35   21   36 1
  36   22   23 ar
  37   22   37 1
  38   23   24 ar
  39   23   25 1
  40   24   38 1

#	End of record

