#	Name: ASD04590299
#	Creating user name:	WinNT
#	Creation time:	15. 06. 2019 20:50

#	Modifying user name:	WinNT
#	Modification time:	15. 06. 2019 20:50

#	Program:	/corina/corina34_cracker 3.40 0067  02.08.2006

@<TRIPOS>MOLECULE
ASD04590299
  41   45    0    0    0
SMALL
NO_CHARGES


@<TRIPOS>ATOM
   1 C1            -0.0167     1.3834     0.0096 C.ar    
   2 C2             0.0021    -0.0041     0.0020 C.ar    
   3 C3             1.1863    -0.6848    -0.0125 C.ar    
   4 C4             2.3948     0.0191    -0.0202 C.ar    
   5 C5             2.3756     1.4250    -0.0129 C.ar    
   6 C6             1.1624     2.0987     0.0022 C.ar    
   7 N7             3.6952    -0.3636    -0.0350 N.2     
   8 C8             4.4665     0.6967    -0.0373 C.2     
   9 N9             3.6970     1.8290    -0.0240 N.pl3   
  10 C10            5.9437     0.6731    -0.0516 C.2     
  11 C11            6.7566    -0.4840    -0.0655 C.2     
  12 C12            8.0505    -0.0799    -0.0763 C.2     
  13 N13            8.0626     1.2790    -0.0696 N.pl3   
  14 N14            6.7358     1.7273    -0.0595 N.2     
  15 N15            6.3044    -1.8133    -0.0673 N.am    
  16 C16            7.1924    -2.8271    -0.0812 C.2     
  17 C17            6.7177    -4.2227    -0.0831 C.ar    
  18 O18            8.3854    -2.5905    -0.0923 O.2     
  19 C19            4.9022    -5.8121    -0.0659 C.ar    
  20 C20            5.7742    -6.8601    -0.0850 C.ar    
  21 C21            7.1586    -6.6240    -0.0987 C.ar    
  22 C22            7.6456    -5.2946    -0.0977 C.ar    
  23 C23            5.3584    -4.5005    -0.0647 C.ar    
  24 C24            8.0810    -7.6876    -0.1191 C.ar    
  25 C25            9.4134    -7.3853    -0.1321 C.ar    
  26 C26            9.8234    -6.0547    -0.1250 C.ar    
  27 N27            8.9595    -5.0670    -0.1109 N.ar    
  28 H28           -0.9614     1.9069     0.0169 H       
  29 H29           -0.9290    -0.5513     0.0080 H       
  30 H30            1.1893    -1.7648    -0.0176 H       
  31 H31            1.1417     3.1785     0.0075 H       
  32 H32            4.0192     2.7439    -0.0229 H       
  33 H33            8.9176    -0.7236    -0.0876 H       
  34 H34            8.8531     1.8410    -0.0743 H       
  35 H35            5.3530    -2.0020    -0.0585 H       
  36 H36            3.8396    -6.0051    -0.0555 H       
  37 H37            5.3999    -7.8732    -0.0852 H       
  38 H38            4.6473    -3.6878    -0.0490 H       
  39 H39            7.7447    -8.7139    -0.1241 H       
  40 H40           10.1475    -8.1773    -0.1476 H       
  41 H41           10.8797    -5.8297    -0.1354 H       
@<TRIPOS>BOND
   1    1    2 ar
   2    1    6 ar
   3    1   28 1
   4    2    3 ar
   5    2   29 1
   6    3    4 ar
   7    3   30 1
   8    4    5 ar
   9    4    7 1
  10    5    6 ar
  11    5    9 1
  12    6   31 1
  13    7    8 2
  14    8    9 1
  15    8   10 1
  16    9   32 1
  17   10   11 1
  18   10   14 2
  19   11   12 2
  20   11   15 1
  21   12   13 1
  22   12   33 1
  23   13   14 1
  24   13   34 1
  25   15   16 am
  26   15   35 1
  27   16   17 1
  28   16   18 2
  29   17   22 ar
  30   17   23 ar
  31   19   20 ar
  32   19   23 ar
  33   19   36 1
  34   20   21 ar
  35   20   37 1
  36   21   22 ar
  37   21   24 ar
  38   22   27 ar
  39   23   38 1
  40   24   25 ar
  41   24   39 1
  42   25   26 ar
  43   25   40 1
  44   26   27 ar
  45   26   41 1

#	End of record

