#	Name: ASD01140542
#	Creating user name:	WinNT
#	Creation time:	15. 06. 2019 19:01

#	Modifying user name:	WinNT
#	Modification time:	15. 06. 2019 19:01

#	Program:	/corina/corina34_cracker 3.40 0067  02.08.2006

@<TRIPOS>MOLECULE
ASD01140542
  52   55    0    0    0
SMALL
NO_CHARGES


@<TRIPOS>ATOM
   1 S1            -0.0172     1.4168     0.0098 S.o2    
   2 F2            -0.6209     2.8935    -6.2866 F       
   3 O3            -0.8943     4.6127    -3.8700 O.3     
   4 O4             0.0021    -0.0041     0.0020 O.2     
   5 O5             1.1903     2.1659     0.0023 O.2     
   6 N6            -8.4525     6.0276    -7.6564 N.pl3   
   7 N7            -6.2781     5.8377    -7.6322 N.2     
   8 N8            -8.8934     3.8674    -6.4964 N.ar    
   9 N9            -8.3606     2.8259    -5.9669 N.ar    
  10 C10           -2.0510     2.5229    -3.8886 C.ar    
  11 C11           -0.8061     1.8490    -1.5052 C.ar    
  12 C12           -2.7180     2.8833    -5.1635 C.ar    
  13 C13           -4.7173     3.3946    -6.4038 C.ar    
  14 C14           -6.1868     3.5795    -6.4539 C.ar    
  15 C15           -6.7623     4.7273    -7.0362 C.ar    
  16 C16           -1.1567     3.4137    -3.2878 C.ar    
  17 C17           -4.0979     3.0559    -5.2038 C.ar    
  18 C18           -8.1666     4.8320    -7.0354 C.ar    
  19 C19           -0.5384     3.0690    -2.0965 C.ar    
  20 C20           -1.1394     2.0311     1.2958 C.3     
  21 C21           -2.3174     1.2977    -3.2816 C.ar    
  22 C22           -1.6950     0.9674    -2.0949 C.ar    
  23 C23           -1.9616     3.0557    -6.3246 C.ar    
  24 C24           -9.7869     6.5827    -7.8966 C.3     
  25 C25           -3.9526     3.5598    -7.5592 C.ar    
  26 C26           -7.2681     6.6011    -8.0005 C.2     
  27 C27           -2.5835     3.3928    -7.5139 C.ar    
  28 C28           -7.0556     2.6313    -5.9166 C.ar    
  29 C29           -0.5580     1.7125     2.6748 C.3     
  30 C30          -10.2522     7.3470    -6.6556 C.3     
  31 C31            0.0300     5.4714    -3.1989 C.3     
  32 H32           -4.6865     2.9273    -4.3075 H       
  33 H33            0.1531     3.7547    -1.6295 H       
  34 H34           -1.2562     3.1098     1.1911 H       
  35 H35           -2.1111     1.5485     1.1909 H       
  36 H36           -3.0108     0.6074    -3.7387 H       
  37 H37           -1.8989     0.0156    -1.6271 H       
  38 H38           -9.7501     7.2614    -8.7487 H       
  39 H39          -10.4849     5.7725    -8.1073 H       
  40 H40           -4.4329     3.8226    -8.4902 H       
  41 H41           -7.1634     7.5500    -8.5054 H       
  42 H42           -1.9952     3.5260    -8.4098 H       
  43 H43           -6.6609     1.7363    -5.4587 H       
  44 H44           -1.2323     2.0817     3.4475 H       
  45 H45           -0.4412     0.6339     2.7795 H       
  46 H46            0.4137     2.1951     2.7797 H       
  47 H47          -11.2450     7.7600    -6.8343 H       
  48 H48          -10.2890     6.6683    -5.8035 H       
  49 H49           -9.5542     8.1572    -6.4449 H       
  50 H50            0.1491     6.3931    -3.7684 H       
  51 H51           -0.3482     5.7055    -2.2038 H       
  52 H52            0.9943     4.9705    -3.1125 H       
@<TRIPOS>BOND
   1    1    4 2
   2    1    5 2
   3    1   11 1
   4    1   20 1
   5    2   23 1
   6    3   16 1
   7    3   31 1
   8    6   18 1
   9    6   24 1
  10    6   26 1
  11    7   15 1
  12    7   26 2
  13    8    9 ar
  14    8   18 ar
  15    9   28 ar
  16   10   12 1
  17   10   16 ar
  18   10   21 ar
  19   11   19 ar
  20   11   22 ar
  21   12   17 ar
  22   12   23 ar
  23   13   14 1
  24   13   17 ar
  25   13   25 ar
  26   14   15 ar
  27   14   28 ar
  28   15   18 ar
  29   16   19 ar
  30   17   32 1
  31   19   33 1
  32   20   29 1
  33   20   34 1
  34   20   35 1
  35   21   22 ar
  36   21   36 1
  37   22   37 1
  38   23   27 ar
  39   24   30 1
  40   24   38 1
  41   24   39 1
  42   25   27 ar
  43   25   40 1
  44   26   41 1
  45   27   42 1
  46   28   43 1
  47   29   44 1
  48   29   45 1
  49   29   46 1
  50   30   47 1
  51   30   48 1
  52   30   49 1
  53   31   50 1
  54   31   51 1
  55   31   52 1

#	End of record

