#	Name: ASD08178276
#	Creating user name:	WinNT
#	Creation time:	15. 06. 2019 21:18

#	Modifying user name:	WinNT
#	Modification time:	15. 06. 2019 21:18

#	Program:	/corina/corina34_cracker 3.40 0067  02.08.2006

@<TRIPOS>MOLECULE
ASD08178276
  76   80    0    0    0
SMALL
NO_CHARGES


@<TRIPOS>ATOM
   1 N1            -0.0168     1.3902     0.0097 N.am    
   2 C2            -0.2173     0.0103     0.0231 C.ar    
   3 C3             0.8683    -0.8557    -0.0926 C.ar    
   4 N4            -1.4399    -0.4832     0.1513 N.ar    
   5 N5            -1.6667    -1.7463     0.1686 N.ar    
   6 C6            -0.7002    -2.6368     0.0602 C.ar    
   7 C7             0.6159    -2.2190    -0.0733 C.ar    
   8 C8            -1.0247    -4.1082     0.0874 C.3     
   9 C9            -1.8115    -4.4335     1.3586 C.3     
  10 C10           -2.1410    -5.9273     1.3862 C.3     
  11 C11           -2.9278    -6.2527     2.6574 C.3     
  12 C12           -3.2523    -7.7241     2.6845 C.2     
  13 N13           -2.5213    -8.6581     3.2049 N.2     
  14 N14           -2.9690    -9.8359     3.1257 N.2     
  15 C15           -4.1130   -10.0077     2.5350 C.2     
  16 S16           -4.6995    -8.4828     2.0200 S.3     
  17 N17           -4.7575   -11.2270     2.3553 N.am    
  18 C18           -4.1929   -12.3617     2.8139 C.2     
  19 C19           -4.8913   -13.6828     2.6192 C.3     
  20 O20           -3.1229   -12.3195     3.3832 O.2     
  21 C21           -4.0568   -14.7853     3.2184 C.ar    
  22 C22           -4.2366   -15.1477     4.5400 C.ar    
  23 C23           -3.4710   -16.1591     5.0898 C.ar    
  24 C24           -2.5260   -16.8081     4.3177 C.ar    
  25 C25           -2.3467   -16.4462     2.9955 C.ar    
  26 C26           -3.1151   -15.4380     2.4446 C.ar    
  27 C27           -1.0750     2.2250     0.0167 C.2     
  28 C28           -0.8601     3.7130     0.1198 C.3     
  29 O29           -2.2000     1.7786    -0.0599 O.2     
  30 C30           -1.3160   -17.1534     2.1537 C.3     
  31 N31           -1.9311   -18.3103     1.4984 N.am    
  32 C32           -1.1940   -19.0976     0.6901 C.2     
  33 C33           -2.1935     4.4152     0.1067 C.ar    
  34 C34           -2.7562     4.8075    -1.0935 C.ar    
  35 C35           -2.8565     4.6619     1.2943 C.ar    
  36 C36           -3.9793     5.4515    -1.1056 C.ar    
  37 C37           -4.6398     5.7029     0.0824 C.ar    
  38 C38           -4.0795     5.3060     1.2822 C.ar    
  39 O39           -0.0193   -18.8479     0.5049 O.2     
  40 C40           -1.8159   -20.2672     0.0275 C.ar    
  41 N41           -3.0991   -20.5433     0.2274 N.ar    
  42 N42           -3.6744   -21.5469    -0.3286 N.ar    
  43 C43           -3.0298   -22.3723    -1.1365 C.ar    
  44 C44           -1.6849   -22.1684    -1.4087 C.ar    
  45 C45           -1.0563   -21.0827    -0.8161 C.ar    
  46 Br46          -3.9418   -23.8315    -1.9204 Br      
  47 H47            0.8842     1.7494    -0.0006 H       
  48 H48            1.8745    -0.4770    -0.1944 H       
  49 H49            1.4199    -2.9345    -0.1636 H       
  50 H50           -1.6240    -4.3643    -0.7864 H       
  51 H51           -0.0997    -4.6845     0.0751 H       
  52 H52           -1.2123    -4.1774     2.2323 H       
  53 H53           -2.7366    -3.8571     1.3708 H       
  54 H54           -2.7402    -6.1835     0.5124 H       
  55 H55           -1.2159    -6.5037     1.3739 H       
  56 H56           -2.3286    -5.9966     3.5311 H       
  57 H57           -3.8529    -5.6763     2.6696 H       
  58 H58           -5.6133   -11.2607     1.9000 H       
  59 H59           -5.8640   -13.6554     3.1104 H       
  60 H60           -5.0274   -13.8683     1.5537 H       
  61 H61           -4.9750   -14.6406     5.1433 H       
  62 H62           -3.6110   -16.4418     6.1227 H       
  63 H63           -1.9273   -17.5977     4.7474 H       
  64 H64           -2.9751   -15.1553     1.4117 H       
  65 H65           -0.3385     3.9413     1.0493 H       
  66 H66           -0.2620     4.0532    -0.7255 H       
  67 H67           -0.9326   -16.4687     1.3973 H       
  68 H68           -0.4963   -17.4890     2.7890 H       
  69 H69           -2.8688   -18.5097     1.6462 H       
  70 H70           -2.2401     4.6111    -2.0216 H       
  71 H71           -2.4191     4.3511     2.2316 H       
  72 H72           -4.4186     5.7587    -2.0432 H       
  73 H73           -5.5953     6.2064     0.0730 H       
  74 H74           -4.5956     5.5024     2.2103 H       
  75 H75           -1.1439   -22.8332    -2.0657 H       
  76 H76           -0.0110   -20.8786    -0.9949 H       
@<TRIPOS>BOND
   1    1    2 1
   2    1   27 am
   3    1   47 1
   4    2    3 ar
   5    2    4 ar
   6    3    7 ar
   7    3   48 1
   8    4    5 ar
   9    5    6 ar
  10    6    7 ar
  11    6    8 1
  12    7   49 1
  13    8    9 1
  14    8   50 1
  15    8   51 1
  16    9   10 1
  17    9   52 1
  18    9   53 1
  19   10   11 1
  20   10   54 1
  21   10   55 1
  22   11   12 1
  23   11   56 1
  24   11   57 1
  25   12   13 2
  26   12   16 1
  27   13   14 1
  28   14   15 2
  29   15   16 1
  30   15   17 1
  31   17   18 am
  32   17   58 1
  33   18   19 1
  34   18   20 2
  35   19   21 1
  36   19   59 1
  37   19   60 1
  38   21   22 ar
  39   21   26 ar
  40   22   23 ar
  41   22   61 1
  42   23   24 ar
  43   23   62 1
  44   24   25 ar
  45   24   63 1
  46   25   26 ar
  47   25   30 1
  48   26   64 1
  49   27   28 1
  50   27   29 2
  51   28   33 1
  52   28   65 1
  53   28   66 1
  54   30   31 1
  55   30   67 1
  56   30   68 1
  57   31   32 am
  58   31   69 1
  59   32   40 1
  60   32   39 2
  61   33   35 ar
  62   33   34 ar
  63   34   36 ar
  64   34   70 1
  65   35   38 ar
  66   35   71 1
  67   36   37 ar
  68   36   72 1
  69   37   38 ar
  70   37   73 1
  71   38   74 1
  72   40   41 ar
  73   40   45 ar
  74   41   42 ar
  75   42   43 ar
  76   43   44 ar
  77   43   46 1
  78   44   45 ar
  79   44   75 1
  80   45   76 1

#	End of record

