#	Name: ASD08150055
#	Creating user name:	WinNT
#	Creation time:	15. 06. 2019 21:15

#	Modifying user name:	WinNT
#	Modification time:	15. 06. 2019 21:15

#	Program:	/corina/corina34_cracker 3.40 0067  02.08.2006

@<TRIPOS>MOLECULE
ASD08150055
  53   57    0    0    0
SMALL
NO_CHARGES


@<TRIPOS>ATOM
   1 O1            -0.0161     1.3330     0.0094 O.3     
   2 C2             0.0021    -0.0041     0.0020 C.2     
   3 N3             1.2341    -0.5298    -0.0131 N.am    
   4 C4             2.2199     0.5609    -0.0177 C.3     
   5 C5             1.3491     1.8401    -0.0009 C.3     
   6 C6             1.6394     2.5476     1.3379 C.3     
   7 C7             3.0416     2.0329     1.7466 C.3     
   8 C8             2.9998     0.5471     1.3122 C.3     
   9 O9            -1.0071    -0.6806     0.0091 O.2     
  10 O10            1.6600     3.9653     1.1597 O.3     
  11 C11            3.0878    -3.5927     0.0532 C.ar    
  12 N12            2.1488    -4.5210    -0.0400 N.ar    
  13 C13            0.8623    -4.1832    -0.1289 C.ar    
  14 C14            0.5148    -2.8329    -0.1225 C.ar    
  15 C15            1.5325    -1.8881    -0.0229 C.ar    
  16 N16            2.7934    -2.3012     0.0622 N.ar    
  17 C17           -2.0758    -7.1182    -0.4219 C.ar    
  18 N18           -0.8048    -7.4856    -0.3353 N.ar    
  19 C19            0.1561    -6.5845    -0.2412 C.ar    
  20 C20           -0.1837    -5.2282    -0.2335 C.ar    
  21 C21           -1.5350    -4.8827    -0.3266 C.ar    
  22 N22           -2.4375    -5.8429    -0.4179 N.ar    
  23 C23            1.5979    -7.0118    -0.1427 C.3     
  24 F24            1.6832    -8.4009    -0.2851 F       
  25 F25            2.3379    -6.3929    -1.1558 F       
  26 F26            2.1108    -6.6384     1.1041 F       
  27 O27            6.6143    -5.2553     1.3405 O.3     
  28 C28            6.0148    -5.8318     0.1771 C.3     
  29 C29            4.5338    -5.4471     0.1288 C.3     
  30 N30            4.4124    -3.9821     0.1496 N.3     
  31 C31            5.0390    -3.4245     1.3570 C.3     
  32 C32            6.5150    -3.8296     1.3930 C.3     
  33 N33           -3.0508    -8.0924    -0.5248 N.pl3   
  34 H34            2.8720     0.5194    -0.8901 H       
  35 H35            1.5411     2.4776    -0.8640 H       
  36 H36            0.8977     2.2672     2.0857 H       
  37 H37            3.8224     2.5708     1.2089 H       
  38 H38            3.1849     2.1165     2.8239 H       
  39 H39            2.4749    -0.0527     2.0557 H       
  40 H40            4.0096     0.1667     1.1579 H       
  41 H41            1.8385     4.4610     1.9705 H       
  42 H42           -0.5187    -2.5273    -0.1934 H       
  43 H43           -1.8368    -3.8457    -0.3243 H       
  44 H44            6.5174    -5.4574    -0.7148 H       
  45 H45            6.1077    -6.9170     0.2195 H       
  46 H46            4.0862    -5.8364    -0.7856 H       
  47 H47            4.0202    -5.8671     0.9936 H       
  48 H48            4.9602    -2.3375     1.3391 H       
  49 H49            4.5335    -3.8123     2.2415 H       
  50 H50            6.9696    -3.4667     2.3148 H       
  51 H51            7.0321    -3.3970     0.5365 H       
  52 H52           -2.8010    -9.0297    -0.5329 H       
  53 H53           -3.9849    -7.8389    -0.5889 H       
@<TRIPOS>BOND
   1    1    2 1
   2    1    5 1
   3    2    3 am
   4    2    9 2
   5    3    4 1
   6    3   15 1
   7    4    5 1
   8    4    8 1
   9    4   34 1
  10    5    6 1
  11    5   35 1
  12    6    7 1
  13    6   10 1
  14    6   36 1
  15    7    8 1
  16    7   37 1
  17    7   38 1
  18    8   39 1
  19    8   40 1
  20   10   41 1
  21   11   12 ar
  22   11   16 ar
  23   11   30 1
  24   12   13 ar
  25   13   14 ar
  26   13   20 1
  27   14   15 ar
  28   14   42 1
  29   15   16 ar
  30   17   18 ar
  31   17   22 ar
  32   17   33 1
  33   18   19 ar
  34   19   20 ar
  35   19   23 1
  36   20   21 ar
  37   21   22 ar
  38   21   43 1
  39   23   24 1
  40   23   25 1
  41   23   26 1
  42   27   28 1
  43   27   32 1
  44   28   29 1
  45   28   44 1
  46   28   45 1
  47   29   30 1
  48   29   46 1
  49   29   47 1
  50   30   31 1
  51   31   32 1
  52   31   48 1
  53   31   49 1
  54   32   50 1
  55   32   51 1
  56   33   52 1
  57   33   53 1

#	End of record

