#	Name: ASD01815954
#	Creating user name:	WinNT
#	Creation time:	15. 06. 2019 19:34

#	Modifying user name:	WinNT
#	Modification time:	15. 06. 2019 19:34

#	Program:	/corina/corina34_cracker 3.40 0067  02.08.2006

@<TRIPOS>MOLECULE
ASD01815954
  53   58    0    0    0
SMALL
NO_CHARGES


@<TRIPOS>ATOM
   1 C1             1.1844     2.2598    -0.5288 C.ar    
   2 C2             0.8010     0.9287    -0.5124 C.ar    
   3 C3             1.7395    -0.0723    -0.3553 C.ar    
   4 C4             3.0863     0.2502    -0.2119 C.ar    
   5 C5             3.4722     1.6003    -0.2294 C.ar    
   6 C6             2.5161     2.6013    -0.3881 C.ar    
   7 N7             4.0322    -0.7491    -0.0535 N.pl3   
   8 C8             5.3432    -0.4984     0.0895 C.2     
   9 C9             5.8376     0.7824     0.0881 C.2     
  10 C10            4.9040     1.9199    -0.0758 C.2     
  11 C11            7.1587     1.3896     0.2161 C.2     
  12 N12            6.9694     2.7241     0.1311 N.am    
  13 N13            5.6133     3.0116    -0.0430 N.2     
  14 C14            7.9875     3.6831     0.2063 C.ar    
  15 O15            8.2207     0.8083     0.3696 O.2     
  16 C16            3.5814    -2.1429    -0.0411 C.3     
  17 C17            3.4352    -2.6362    -1.4576 C.ar    
  18 C18            4.5172    -2.5904    -2.3207 C.ar    
  19 C19            4.3847    -3.0428    -3.6215 C.ar    
  20 C20            3.1661    -3.5425    -4.0596 C.ar    
  21 C21            2.0834    -3.5866    -3.1906 C.ar    
  22 C22            2.2225    -3.1390    -1.8916 C.ar    
  23 F23            2.8891     3.8996    -0.4046 F       
  24 F24            1.3502    -1.3660    -0.3405 F       
  25 C25            8.7043     4.0277    -0.9317 C.ar    
  26 C26            9.7078     4.9737    -0.8546 C.ar    
  27 C27            9.9998     5.5784     0.3544 C.ar    
  28 C28            9.2890     5.2388     1.4907 C.ar    
  29 C29            8.2789     4.2966     1.4199 C.ar    
  30 F30            7.5842     3.9646     2.5300 F       
  31 F31            5.7024    -2.1033    -1.8926 F       
  32 N32            3.0285    -4.0005    -5.3748 N.am    
  33 C33            1.7986    -4.5516    -5.9644 C.3     
  34 C34            2.2053    -4.8904    -7.4115 C.3     
  35 O35            3.6068    -4.4990    -7.4849 O.3     
  36 C36            3.9939    -4.0034    -6.3041 C.2     
  37 O37            5.1203    -3.6003    -6.0913 O.2     
  38 H38            0.4409     3.0327    -0.6565 H       
  39 H39           -0.2420     0.6713    -0.6232 H       
  40 H40            6.0269    -1.3259     0.2093 H       
  41 H41            4.3134    -2.7569     0.4837 H       
  42 H42            2.6198    -2.2093     0.4678 H       
  43 H43            5.2282    -3.0070    -4.2951 H       
  44 H44            1.1344    -3.9750    -3.5294 H       
  45 H45            1.3805    -3.1739    -1.2161 H       
  46 H46            8.4777     3.5561    -1.8766 H       
  47 H47           10.2655     5.2414    -1.7398 H       
  48 H48           10.7853     6.3174     0.4112 H       
  49 H49            9.5198     5.7127     2.4334 H       
  50 H50            1.4891    -5.4515    -5.4329 H       
  51 H51            1.0025    -3.8071    -5.9547 H       
  52 H52            2.0966    -5.9587    -7.5988 H       
  53 H53            1.6101    -4.3148    -8.1204 H       
@<TRIPOS>BOND
   1    1    2 ar
   2    1    6 ar
   3    1   38 1
   4    2    3 ar
   5    2   39 1
   6    3    4 ar
   7    3   24 1
   8    4    5 ar
   9    4    7 1
  10    5    6 ar
  11    5   10 1
  12    6   23 1
  13    7    8 1
  14    7   16 1
  15    8    9 2
  16    8   40 1
  17    9   10 1
  18    9   11 1
  19   10   13 2
  20   11   12 am
  21   11   15 2
  22   12   13 1
  23   12   14 1
  24   14   25 ar
  25   14   29 ar
  26   16   17 1
  27   16   41 1
  28   16   42 1
  29   17   18 ar
  30   17   22 ar
  31   18   19 ar
  32   18   31 1
  33   19   20 ar
  34   19   43 1
  35   20   21 ar
  36   20   32 1
  37   21   22 ar
  38   21   44 1
  39   22   45 1
  40   25   26 ar
  41   25   46 1
  42   26   27 ar
  43   26   47 1
  44   27   28 ar
  45   27   48 1
  46   28   29 ar
  47   28   49 1
  48   29   30 1
  49   32   33 1
  50   32   36 am
  51   33   34 1
  52   33   50 1
  53   33   51 1
  54   34   35 1
  55   34   52 1
  56   34   53 1
  57   35   36 1
  58   36   37 2

#	End of record

