#	Name: ASD01883241
#	Creating user name:	WinNT
#	Creation time:	15. 06. 2019 19:46

#	Modifying user name:	WinNT
#	Modification time:	15. 06. 2019 19:46

#	Program:	/corina/corina34_cracker 3.40 0067  02.08.2006

@<TRIPOS>MOLECULE
ASD01883241
  53   55    0    0    0
SMALL
NO_CHARGES


@<TRIPOS>ATOM
   1 N1             0.0129     1.2876    -0.0441 N.am    
   2 C2             0.0214    -0.0569     0.0153 C.2     
   3 C3            -1.2017    -0.7712     0.0344 C.2     
   4 C4            -2.4069    -0.0472    -0.0098 C.2     
   5 C5            -2.3490     1.3594    -0.0713 C.2     
   6 C6            -1.1512     1.9862    -0.0812 C.2     
   7 O7             1.0807    -0.6595     0.0523 O.2     
   8 C8            -1.2111    -2.2018     0.0971 C.1     
   9 N9            -1.2185    -3.3367     0.1467 N.1     
  10 C10            1.2856     2.0129    -0.0632 C.3     
  11 C11            1.7434     2.2017    -1.5109 C.3     
  12 C12            3.0726     2.9591    -1.5308 C.3     
  13 C13            3.5925     3.0391    -2.9675 C.3     
  14 C14            2.8622     4.3729    -0.9851 C.3     
  15 C15           -3.7072    -0.7474     0.0074 C.ar    
  16 C16           -4.5774    -0.5819     1.0885 C.ar    
  17 C17           -5.7885    -1.2359     1.1017 C.ar    
  18 C18           -6.1468    -2.0618     0.0400 C.ar    
  19 C19           -5.2820    -2.2290    -1.0379 C.ar    
  20 C20           -4.0724    -1.5725    -1.0600 C.ar    
  21 N21           -7.3724    -2.7223     0.0564 N.pl3   
  22 C22           -8.3675    -2.3713    -0.8592 C.ar    
  23 C23           -8.1813    -1.2876    -1.7084 C.ar    
  24 C24           -9.1668    -0.9437    -2.6126 C.ar    
  25 C25          -10.3379    -1.6766    -2.6734 C.ar    
  26 C26          -10.5268    -2.7556    -1.8293 C.ar    
  27 C27           -9.5431    -3.1086    -0.9266 C.ar    
  28 C28           -7.6185    -3.7854     1.0339 C.3     
  29 H29           -3.2612     1.9367    -0.1065 H       
  30 H30           -1.1192     3.0647    -0.1286 H       
  31 H31            1.1554     2.9877     0.4068 H       
  32 H32            2.0367     1.4431     0.4840 H       
  33 H33            1.8736     1.2269    -1.9808 H       
  34 H34            0.9923     2.7714    -2.0580 H       
  35 H35            3.7990     2.4345    -0.9102 H       
  36 H36            2.8660     3.5637    -3.5881 H       
  37 H37            4.5395     3.5787    -2.9817 H       
  38 H38            3.7424     2.0319    -3.3563 H       
  39 H39            2.1357     4.8975    -1.6057 H       
  40 H40            2.4918     4.3160     0.0384 H       
  41 H41            3.8091     4.9126    -0.9993 H       
  42 H42           -4.2997     0.0582     1.9128 H       
  43 H43           -6.4614    -1.1084     1.9368 H       
  44 H44           -5.5626    -2.8708    -1.8601 H       
  45 H45           -3.4018    -1.7026    -1.8966 H       
  46 H46           -7.2670    -0.7146    -1.6612 H       
  47 H47           -9.0228    -0.1012    -3.2728 H       
  48 H48          -11.1070    -1.4054    -3.3815 H       
  49 H49          -11.4429    -3.3254    -1.8789 H       
  50 H50           -9.6912    -3.9514    -0.2677 H       
  51 H51           -8.0449    -3.3545     1.9398 H       
  52 H52           -8.3151    -4.5110     0.6139 H       
  53 H53           -6.6785    -4.2817     1.2753 H       
@<TRIPOS>BOND
   1    1    2 am
   2    1   10 1
   3    1    6 1
   4    2    3 1
   5    2    7 2
   6    3    4 2
   7    3    8 1
   8    4    5 1
   9    4   15 1
  10    5    6 2
  11    5   29 1
  12    6   30 1
  13    8    9 3
  14   10   11 1
  15   10   31 1
  16   10   32 1
  17   11   12 1
  18   11   33 1
  19   11   34 1
  20   12   13 1
  21   12   14 1
  22   12   35 1
  23   13   36 1
  24   13   37 1
  25   13   38 1
  26   14   39 1
  27   14   40 1
  28   14   41 1
  29   15   16 ar
  30   15   20 ar
  31   16   17 ar
  32   16   42 1
  33   17   18 ar
  34   17   43 1
  35   18   19 ar
  36   18   21 1
  37   19   20 ar
  38   19   44 1
  39   20   45 1
  40   21   22 1
  41   21   28 1
  42   22   23 ar
  43   22   27 ar
  44   23   24 ar
  45   23   46 1
  46   24   25 ar
  47   24   47 1
  48   25   26 ar
  49   25   48 1
  50   26   27 ar
  51   26   49 1
  52   27   50 1
  53   28   51 1
  54   28   52 1
  55   28   53 1

#	End of record

