#	Name: ASD05062022
#	Creating user name:	WinNT
#	Creation time:	15. 06. 2019 20:56

#	Modifying user name:	WinNT
#	Modification time:	15. 06. 2019 20:56

#	Program:	/corina/corina34_cracker 3.40 0067  02.08.2006

@<TRIPOS>MOLECULE
ASD05062022
  39   41    0    0    0
SMALL
NO_CHARGES


@<TRIPOS>ATOM
   1 C1            -0.0167     1.3831     0.0096 C.ar    
   2 C2             0.0021    -0.0041     0.0020 C.ar    
   3 C3             1.2010    -0.6828    -0.0131 C.ar    
   4 C4             2.3970     0.0306    -0.0206 C.ar    
   5 C5             2.3798     1.4344    -0.0129 C.ar    
   6 C6             1.1592     2.1013     0.0023 C.ar    
   7 C7             3.8198    -0.3558    -0.0363 C.2     
   8 C8             4.5363     0.8078    -0.0368 C.2     
   9 N9             3.6910     1.8652    -0.0231 N.pl3   
  10 C10            4.1092     3.2693    -0.0200 C.3     
  11 C11            4.1472     3.7789     1.3977 C.ar    
  12 C12            5.3089     3.6715     2.1394 C.ar    
  13 C13            5.3451     4.1389     3.4394 C.ar    
  14 C14            4.2173     4.7151     3.9990 C.ar    
  15 C15            3.0544     4.8221     3.2552 C.ar    
  16 C16            3.0221     4.3587     1.9536 C.ar    
  17 F17            4.2514     5.1720     5.2699 F       
  18 C18            4.3603    -1.7216    -0.0487 C.2     
  19 C19            5.8126    -1.9363    -0.0637 C.2     
  20 O20            3.6036    -2.6760    -0.0467 O.2     
  21 C21            6.3101    -3.1936    -0.0752 C.2     
  22 O22            5.4690    -4.2545    -0.0729 O.3     
  23 C23            7.7739    -3.4100    -0.0903 C.2     
  24 O24            8.5283    -2.4585    -0.0924 O.2     
  25 O25            8.2696    -4.6627    -0.1018 O.3     
  26 H26           -0.9622     1.9051     0.0169 H       
  27 H27           -0.9272    -0.5544     0.0083 H       
  28 H28            1.2133    -1.7627    -0.0186 H       
  29 H29            1.1332     3.1810     0.0080 H       
  30 H30            5.6142     0.8739    -0.0471 H       
  31 H31            5.1014     3.3538    -0.4632 H       
  32 H32            3.4006     3.8607    -0.5998 H       
  33 H33            6.1884     3.2217     1.7028 H       
  34 H34            6.2527     4.0546     4.0187 H       
  35 H35            2.1740     5.2713     3.6907 H       
  36 H36            2.1151     4.4421     1.3733 H       
  37 H37            6.4835    -1.0900    -0.0656 H       
  38 H38            5.9168    -5.1115    -0.0818 H       
  39 H39            9.2323    -4.7538    -0.1115 H       
@<TRIPOS>BOND
   1    1    2 ar
   2    1    6 ar
   3    1   26 1
   4    2    3 ar
   5    2   27 1
   6    3    4 ar
   7    3   28 1
   8    4    5 ar
   9    4    7 1
  10    5    6 ar
  11    5    9 1
  12    6   29 1
  13    7    8 2
  14    7   18 1
  15    8    9 1
  16    8   30 1
  17    9   10 1
  18   10   11 1
  19   10   31 1
  20   10   32 1
  21   11   12 ar
  22   11   16 ar
  23   12   13 ar
  24   12   33 1
  25   13   14 ar
  26   13   34 1
  27   14   15 ar
  28   14   17 1
  29   15   16 ar
  30   15   35 1
  31   16   36 1
  32   18   19 1
  33   18   20 2
  34   19   21 2
  35   19   37 1
  36   21   22 1
  37   21   23 1
  38   22   38 1
  39   23   24 2
  40   23   25 1
  41   25   39 1

#	End of record

