#	Name: ASD01881403
#	Creating user name:	WinNT
#	Creation time:	15. 06. 2019 19:42

#	Modifying user name:	WinNT
#	Modification time:	15. 06. 2019 19:42

#	Program:	/corina/corina34_cracker 3.40 0067  02.08.2006

@<TRIPOS>MOLECULE
ASD01881403
  52   56    0    0    0
SMALL
NO_CHARGES


@<TRIPOS>ATOM
   1 C1             0.0577     1.4295    -0.6161 C.ar    
   2 C2             0.1013     0.0688    -0.8366 C.ar    
   3 C3             1.1991     2.1050    -0.2067 C.ar    
   4 C4             2.3897     1.4131    -0.0181 C.ar    
   5 C5             2.4400     0.0522    -0.2373 C.ar    
   6 C6             1.2939    -0.6292    -0.6479 C.ar    
   7 C7             1.3438    -2.0909    -0.8840 C.2     
   8 C8             0.6133    -2.9520    -0.0868 C.2     
   9 C9             2.1360    -2.6193    -1.9323 C.2     
  10 C10            2.1792    -3.9477    -2.1457 C.2     
  11 N11            1.4650    -4.8059    -1.3600 N.pl3   
  12 C12            0.6806    -4.3333    -0.3355 C.2     
  13 C13            1.3215    -6.1600    -1.3434 C.2     
  14 N14            0.5066    -6.4579    -0.3647 N.2     
  15 N15            0.1210    -5.3881     0.2371 N.2     
  16 C16            1.9812    -7.1372    -2.2820 C.3     
  17 C17            3.3261    -7.5757    -1.6991 C.3     
  18 Cl18           3.8147     2.2624     0.4934 Cl      
  19 O19            1.1525     3.4456     0.0095 O.3     
  20 C20           -0.1273     4.0740    -0.0859 C.3     
  21 C21            4.1013    -8.6606    -2.4494 C.3     
  22 C22            4.5885    -7.2107    -2.4827 C.3     
  23 C23           -0.1326     5.3557     0.7529 C.3     
  24 C24           -0.4147     4.4321    -1.5472 C.3     
  25 C25           -1.7510     5.1746    -1.6293 C.3     
  26 O26           -1.6988     6.3392    -0.8028 O.3     
  27 C27           -1.4798     6.0626     0.5820 C.3     
  28 C28           -0.2423    -2.4173     1.0327 C.3     
  29 F29           -1.5568    -2.2596     0.5805 F       
  30 F30           -0.2226    -3.3160     2.1047 F       
  31 F31            0.2581    -1.1801     1.4520 F       
  32 H32           -0.8646     1.9709    -0.7664 H       
  33 H33           -0.7875    -0.4559    -1.1547 H       
  34 H34            3.3654    -0.4852    -0.0914 H       
  35 H35            2.7070    -1.9541    -2.5631 H       
  36 H36            2.7862    -4.3395    -2.9485 H       
  37 H37            1.3390    -8.0086    -2.4094 H       
  38 H38            2.1424    -6.6601    -3.2487 H       
  39 H39            3.3903    -7.5726    -0.6110 H       
  40 H40           -0.8957     3.3942     0.2822 H       
  41 H41            4.6757    -9.3710    -1.8549 H       
  42 H42            3.6531    -9.0620    -3.3583 H       
  43 H43            4.4608    -6.6581    -3.4136 H       
  44 H44            5.4835    -6.9672    -1.9102 H       
  45 H45            0.0162     5.1044     1.8030 H       
  46 H46            0.6691     6.0138     0.4177 H       
  47 H47            0.3813     5.0715    -1.9289 H       
  48 H48           -0.4676     3.5203    -2.1421 H       
  49 H49           -1.9402     5.4696    -2.6614 H       
  50 H50           -2.5521     4.5204    -1.2853 H       
  51 H51           -2.2774     5.4200     0.9549 H       
  52 H52           -1.4737     6.9972     1.1429 H       
@<TRIPOS>BOND
   1    1    2 ar
   2    1    3 ar
   3    1   32 1
   4    2    6 ar
   5    2   33 1
   6    3    4 ar
   7    3   19 1
   8    4    5 ar
   9    4   18 1
  10    5    6 ar
  11    5   34 1
  12    6    7 1
  13    7    8 2
  14    7    9 1
  15    8   28 1
  16    8   12 1
  17    9   10 2
  18    9   35 1
  19   10   11 1
  20   10   36 1
  21   11   12 1
  22   11   13 1
  23   12   15 2
  24   13   14 2
  25   13   16 1
  26   14   15 1
  27   16   17 1
  28   16   37 1
  29   16   38 1
  30   17   21 1
  31   17   22 1
  32   17   39 1
  33   19   20 1
  34   20   23 1
  35   20   24 1
  36   20   40 1
  37   21   22 1
  38   21   41 1
  39   21   42 1
  40   22   43 1
  41   22   44 1
  42   23   27 1
  43   23   45 1
  44   23   46 1
  45   24   25 1
  46   24   47 1
  47   24   48 1
  48   25   26 1
  49   25   49 1
  50   25   50 1
  51   26   27 1
  52   27   51 1
  53   27   52 1
  54   28   29 1
  55   28   30 1
  56   28   31 1

#	End of record

