#	Name: ASD03331255
#	Creating user name:	WinNT
#	Creation time:	15. 06. 2019 20:38

#	Modifying user name:	WinNT
#	Modification time:	15. 06. 2019 20:38

#	Program:	/corina/corina34_cracker 3.40 0067  02.08.2006

@<TRIPOS>MOLECULE
ASD03331255
  60   64    0    0    0
SMALL
NO_CHARGES


@<TRIPOS>ATOM
   1 N1            -0.1950     1.4026     0.4712 N.am    
   2 C2            -0.0931     0.0727     1.0911 C.3     
   3 C3             0.5131    -0.8954     0.0695 C.3     
   4 N4             1.7797    -0.3445    -0.4307 N.3     
   5 C5             1.5652     0.9209    -1.1453 C.3     
   6 C6             1.0021     1.9634    -0.1735 C.3     
   7 C7            -1.3561     2.0867     0.4887 C.2     
   8 O8            -2.3613     1.5671     0.9335 O.2     
   9 N9            -1.4029     3.3469     0.0130 N.am    
  10 C10           -2.6327     4.0034    -0.1093 C.ar    
  11 C11           -2.7108     5.3764     0.0839 C.ar    
  12 C12           -3.9259     6.0214    -0.0380 C.ar    
  13 C13           -5.0640     5.3016    -0.3521 C.ar    
  14 C14           -4.9896     3.9343    -0.5451 C.ar    
  15 C15           -3.7765     3.2842    -0.4298 C.ar    
  16 C16            2.4777    -1.3177    -1.2814 C.3     
  17 C17            3.6364    -0.6434    -1.9696 C.ar    
  18 C18            4.8809    -0.6244    -1.3678 C.ar    
  19 C19            5.9463    -0.0060    -1.9965 C.ar    
  20 C20            5.7693     0.5943    -3.2277 C.ar    
  21 C21            4.5212     0.5763    -3.8341 C.ar    
  22 C22            3.4554    -0.0497    -3.2039 C.ar    
  23 O23            4.3445     1.1662    -5.0454 O.3     
  24 C24            5.4394     1.6605    -5.6800 C.ar    
  25 C25            5.6654     3.0080    -5.6843 C.ar    
  26 C26            6.3235     0.7830    -6.3154 C.ar    
  27 C27            7.4285     1.2476    -6.9581 C.ar    
  28 C28            7.6892     2.6285    -6.9870 C.ar    
  29 C29            6.7968     3.5198    -6.3394 C.ar    
  30 C30            8.8210     3.1426    -7.6422 C.ar    
  31 C31            9.0426     4.4854    -7.6509 C.ar    
  32 C32            8.1628     5.3623    -7.0187 C.ar    
  33 C33            7.0592     4.9007    -6.3698 C.ar    
  34 H34            0.5491     0.1267     1.9702 H       
  35 H35           -1.0854    -0.2738     1.3797 H       
  36 H36            0.6982    -1.8581     0.5460 H       
  37 H37           -0.1794    -1.0276    -0.7617 H       
  38 H38            2.5132     1.2755    -1.5498 H       
  39 H39            0.8580     0.7634    -1.9596 H       
  40 H40            0.7338     2.8670    -0.7209 H       
  41 H41            1.7495     2.1992     0.5841 H       
  42 H42           -0.5841     3.7988    -0.2445 H       
  43 H43           -1.8223     5.9391     0.3296 H       
  44 H44           -3.9873     7.0891     0.1125 H       
  45 H45           -6.0131     5.8082    -0.4466 H       
  46 H46           -5.8803     3.3749    -0.7903 H       
  47 H47           -3.7182     2.2170    -0.5851 H       
  48 H48            2.8478    -2.1381    -0.6665 H       
  49 H49            1.7874    -1.7071    -2.0296 H       
  50 H50            5.0213    -1.0929    -0.4049 H       
  51 H51            6.9174     0.0078    -1.5241 H       
  52 H52            6.6015     1.0777    -3.7178 H       
  53 H53            2.4831    -0.0651    -3.6737 H       
  54 H54            4.9774     3.6756    -5.1869 H       
  55 H55            6.1263    -0.2787    -6.2952 H       
  56 H56            8.1031     0.5582    -7.4440 H       
  57 H57            9.5119     2.4754    -8.1362 H       
  58 H58            9.9135     4.8775    -8.1550 H       
  59 H59            8.3620     6.4235    -7.0406 H       
  60 H60            6.3862     5.5919    -5.8843 H       
@<TRIPOS>BOND
   1    1    2 1
   2    1    6 1
   3    1    7 am
   4    2    3 1
   5    2   34 1
   6    2   35 1
   7    3    4 1
   8    3   36 1
   9    3   37 1
  10    4    5 1
  11    4   16 1
  12    5    6 1
  13    5   38 1
  14    5   39 1
  15    6   40 1
  16    6   41 1
  17    7    8 2
  18    7    9 am
  19    9   10 1
  20    9   42 1
  21   10   11 ar
  22   10   15 ar
  23   11   12 ar
  24   11   43 1
  25   12   13 ar
  26   12   44 1
  27   13   14 ar
  28   13   45 1
  29   14   15 ar
  30   14   46 1
  31   15   47 1
  32   16   17 1
  33   16   48 1
  34   16   49 1
  35   17   18 ar
  36   17   22 ar
  37   18   19 ar
  38   18   50 1
  39   19   20 ar
  40   19   51 1
  41   20   21 ar
  42   20   52 1
  43   21   22 ar
  44   21   23 1
  45   22   53 1
  46   23   24 1
  47   24   25 ar
  48   24   26 ar
  49   25   29 ar
  50   25   54 1
  51   26   27 ar
  52   26   55 1
  53   27   28 ar
  54   27   56 1
  55   28   29 ar
  56   28   30 ar
  57   29   33 ar
  58   30   31 ar
  59   30   57 1
  60   31   32 ar
  61   31   58 1
  62   32   33 ar
  63   32   59 1
  64   33   60 1

#	End of record

