#	Name: ASD05303014
#	Creating user name:	WinNT
#	Creation time:	15. 06. 2019 20:58

#	Modifying user name:	WinNT
#	Modification time:	15. 06. 2019 20:58

#	Program:	/corina/corina34_cracker 3.40 0067  02.08.2006

@<TRIPOS>MOLECULE
ASD05303014
  39   42    0    0    0
SMALL
NO_CHARGES


@<TRIPOS>ATOM
   1 C1            -0.0366     1.3125     0.3147 C.ar    
   2 C2             0.0066    -0.0687     0.3112 C.ar    
   3 C3             1.2206    -0.7237     0.1970 C.ar    
   4 C4             2.3898     0.0083     0.0862 C.ar    
   5 C5             2.3492     1.4013     0.0861 C.ar    
   6 C6             1.1298     2.0483     0.2025 C.ar    
   7 O7             3.4931     2.1239    -0.0303 O.3     
   8 N8             3.6304    -0.6416    -0.0224 N.am    
   9 C9             4.6932     1.5179     0.1613 C.ar    
  10 C10            4.7903     0.1277     0.1673 C.ar    
  11 C11            6.0162    -0.4851     0.3590 C.ar    
  12 C12            7.1497     0.2867     0.5477 C.ar    
  13 C13            7.0562     1.6654     0.5444 C.ar    
  14 C14            5.8327     2.2823     0.3519 C.ar    
  15 S15            3.7224    -2.2599    -0.3618 S.o2    
  16 O16            2.5099    -2.6014    -1.0194 O.2     
  17 O17            5.0048    -2.4776    -0.9337 O.2     
  18 C18            3.7120    -3.1171     1.1776 C.ar    
  19 C19            2.5130    -3.5126     1.7404 C.ar    
  20 C20            2.5049    -4.1851     2.9481 C.ar    
  21 C21            3.6958    -4.4624     3.5928 C.ar    
  22 C22            4.8949    -4.0676     3.0296 C.ar    
  23 C23            4.9033    -3.3990     1.8197 C.ar    
  24 C24            3.6869    -5.1946     4.9100 C.3     
  25 H25           -0.9860     1.8201     0.4010 H       
  26 H26           -0.9074    -0.6374     0.3980 H       
  27 H27            1.2553    -1.8031     0.1946 H       
  28 H28            1.0895     3.1275     0.2053 H       
  29 H29            6.0883    -1.5627     0.3619 H       
  30 H30            8.1076    -0.1889     0.6978 H       
  31 H31            7.9425     2.2644     0.6929 H       
  32 H32            5.7661     3.3602     0.3501 H       
  33 H33            1.5825    -3.2959     1.2367 H       
  34 H34            1.5681    -4.4935     3.3882 H       
  35 H35            5.8253    -4.2840     3.5334 H       
  36 H36            5.8401    -3.0906     1.3797 H       
  37 H37            3.7456    -6.2679     4.7294 H       
  38 H38            4.5428    -4.8793     5.5068 H       
  39 H39            2.7659    -4.9663     5.4464 H       
@<TRIPOS>BOND
   1    1    2 ar
   2    1    6 ar
   3    1   25 1
   4    2    3 ar
   5    2   26 1
   6    3    4 ar
   7    3   27 1
   8    4    5 ar
   9    4    8 1
  10    5    6 ar
  11    5    7 1
  12    6   28 1
  13    7    9 1
  14    8   10 1
  15    8   15 am
  16    9   10 ar
  17    9   14 ar
  18   10   11 ar
  19   11   12 ar
  20   11   29 1
  21   12   13 ar
  22   12   30 1
  23   13   14 ar
  24   13   31 1
  25   14   32 1
  26   15   16 2
  27   15   17 2
  28   15   18 1
  29   18   19 ar
  30   18   23 ar
  31   19   20 ar
  32   19   33 1
  33   20   21 ar
  34   20   34 1
  35   21   22 ar
  36   21   24 1
  37   22   23 ar
  38   22   35 1
  39   23   36 1
  40   24   37 1
  41   24   38 1
  42   24   39 1

#	End of record

