#	Name: ASD03430488
#	Creating user name:	WinNT
#	Creation time:	15. 06. 2019 20:41

#	Modifying user name:	WinNT
#	Modification time:	15. 06. 2019 20:41

#	Program:	/corina/corina34_cracker 3.40 0067  02.08.2006

@<TRIPOS>MOLECULE
ASD03430488
  35   38    0    0    0
SMALL
NO_CHARGES


@<TRIPOS>ATOM
   1 N1            -0.0161     1.3395     0.0094 N.am    
   2 C2             0.0021    -0.0041     0.0020 C.2     
   3 C3             1.4548    -0.4298    -0.0141 C.3     
   4 C4             2.2198     0.8737    -0.0144 C.ar    
   5 C5             3.5644     1.1702    -0.0261 C.ar    
   6 C6             3.9805     2.4901    -0.0234 C.ar    
   7 C7             3.0433     3.5069    -0.0090 C.ar    
   8 C8             1.6949     3.2128     0.0032 C.ar    
   9 C9             1.2684     1.8852     0.0001 C.ar    
  10 O10           -0.9637    -0.7378     0.0073 O.2     
  11 C11            1.7880    -1.2466     1.2360 C.3     
  12 O12            0.9870    -2.4298     1.2594 O.3     
  13 O13            2.3365    -3.3563    -4.7355 O.3     
  14 C14            1.1371    -2.9537    -5.4229 C.3     
  15 O15            0.2347    -2.6004    -4.3580 O.3     
  16 C16            1.0316    -2.2119    -3.3188 C.ar    
  17 C17            2.3239    -2.6770    -3.5515 C.ar    
  18 C18            0.7551    -1.4848    -2.1731 C.ar    
  19 C19            1.7593    -1.2210    -1.2601 C.ar    
  20 C20            3.0463    -1.6831    -1.4895 C.ar    
  21 C21            3.3282    -2.4114    -2.6357 C.ar    
  22 O22            4.0326    -1.4217    -0.5907 O.3     
  23 Br23           0.4236     4.6126     0.0234 Br      
  24 H24           -0.8287     1.8692     0.0163 H       
  25 H25            4.2935     0.3736    -0.0369 H       
  26 H26            5.0345     2.7254    -0.0321 H       
  27 H27            3.3683     4.5369    -0.0069 H       
  28 H28            2.8425    -1.5219     1.2197 H       
  29 H29            1.5818    -0.6506     2.1250 H       
  30 H30            1.1457    -2.9970     2.0263 H       
  31 H31            1.3324    -2.0919    -6.0611 H       
  32 H32            0.7346    -3.7810    -6.0074 H       
  33 H33           -0.2466    -1.1240    -1.9920 H       
  34 H34            4.3307    -2.7713    -2.8140 H       
  35 H35            4.1257    -2.0943     0.0978 H       
@<TRIPOS>BOND
   1    1    2 am
   2    1    9 1
   3    1   24 1
   4    2    3 1
   5    2   10 2
   6    3    4 1
   7    3   11 1
   8    3   19 1
   9    4    5 ar
  10    4    9 ar
  11    5    6 ar
  12    5   25 1
  13    6    7 ar
  14    6   26 1
  15    7    8 ar
  16    7   27 1
  17    8    9 ar
  18    8   23 1
  19   11   12 1
  20   11   28 1
  21   11   29 1
  22   12   30 1
  23   13   14 1
  24   13   17 1
  25   14   15 1
  26   14   31 1
  27   14   32 1
  28   15   16 1
  29   16   17 ar
  30   16   18 ar
  31   17   21 ar
  32   18   19 ar
  33   18   33 1
  34   19   20 ar
  35   20   21 ar
  36   20   22 1
  37   21   34 1
  38   22   35 1

#	End of record

