#	Name: ASD01910981
#	Creating user name:	WinNT
#	Creation time:	15. 06. 2019 19:56

#	Modifying user name:	WinNT
#	Modification time:	15. 06. 2019 19:56

#	Program:	/corina/corina34_cracker 3.40 0067  02.08.2006

@<TRIPOS>MOLECULE
ASD01910981
  51   54    0    0    0
SMALL
NO_CHARGES


@<TRIPOS>ATOM
   1 N1            -4.7536    -3.3285     1.0090 N.3     
   2 C2            -3.5039    -2.6279     1.3335 C.3     
   3 C3            -2.6811    -2.4392     0.0546 C.3     
   4 N4            -3.5246    -1.7733    -0.9496 N.am    
   5 C5            -4.8524    -2.3406    -1.2296 C.3     
   6 C6            -5.5897    -2.5332     0.0998 C.3     
   7 C7            -3.0921    -0.6728    -1.5963 C.2     
   8 C8            -3.9002    -0.0921    -2.6870 C.ar    
   9 C9            -4.0112     1.2963    -2.8122 C.ar    
  10 C10           -4.7642     1.8438    -3.8283 C.ar    
  11 C11           -5.4184     1.0219    -4.7346 C.ar    
  12 C12           -5.3147    -0.3742    -4.6187 C.ar    
  13 C13           -4.5482    -0.9278    -3.5956 C.ar    
  14 C14           -5.9892    -1.2249    -5.5524 C.1     
  15 O15           -2.0365    -0.1582    -1.2816 O.2     
  16 C16           -6.5422    -1.9224    -6.3179 C.1     
  17 C17           -7.2167    -2.7732    -7.2517 C.ar    
  18 N18           -7.1137    -4.0938    -7.1353 N.ar    
  19 C19           -7.7189    -4.9093    -7.9742 C.ar    
  20 C20           -8.4879    -4.4181    -9.0131 C.ar    
  21 C21           -8.6232    -3.0452    -9.1724 C.ar    
  22 C22           -7.9833    -2.2097    -8.2756 C.ar    
  23 C23           -5.4523    -3.6628     2.1646 C.ar    
  24 C24           -6.6705    -4.3358     2.0764 C.ar    
  25 C25           -7.3273    -4.6460     3.2565 C.ar    
  26 C26           -6.7324    -4.2678     4.4534 C.ar    
  27 N27           -5.5762    -3.6331     4.4433 N.ar    
  28 N28           -4.9607    -3.3479     3.3537 N.ar    
  29 O29           -6.1583     1.5664    -5.7322 O.3     
  30 C30           -6.2201     2.9929    -5.7897 C.3     
  31 Cl31          -7.5107    -4.6301     5.9623 Cl      
  32 H32           -3.7344    -1.6538     1.7648 H       
  33 H33           -2.9320    -3.2174     2.0502 H       
  34 H34           -1.8090    -1.8211     0.2681 H       
  35 H35           -2.3615    -3.4108    -0.3219 H       
  36 H36           -5.4159    -1.6574    -1.8651 H       
  37 H37           -4.7415    -3.3028    -1.7296 H       
  38 H38           -6.5306    -3.0540    -0.0781 H       
  39 H39           -5.7911    -1.5604     0.5483 H       
  40 H40           -3.5052     1.9419    -2.1098 H       
  41 H41           -4.8456     2.9169    -3.9192 H       
  42 H42           -4.4642    -2.0004    -3.5008 H       
  43 H43           -7.6128    -5.9768    -7.8490 H       
  44 H44           -8.9789    -5.0965    -9.6951 H       
  45 H45           -9.2188    -2.6390    -9.9766 H       
  46 H46           -8.0675    -1.1371    -8.3700 H       
  47 H47           -7.0891    -4.6065     1.1184 H       
  48 H48           -8.2737    -5.1661     3.2459 H       
  49 H49           -6.8425     3.2959    -6.6316 H       
  50 H50           -6.6498     3.3756    -4.8639 H       
  51 H51           -5.2151     3.3952    -5.9173 H       
@<TRIPOS>BOND
   1    1    2 1
   2    1   23 1
   3    1    6 1
   4    2    3 1
   5    2   32 1
   6    2   33 1
   7    3    4 1
   8    3   34 1
   9    3   35 1
  10    4    5 1
  11    4    7 am
  12    5    6 1
  13    5   36 1
  14    5   37 1
  15    6   38 1
  16    6   39 1
  17    7    8 1
  18    7   15 2
  19    8    9 ar
  20    8   13 ar
  21    9   10 ar
  22    9   40 1
  23   10   11 ar
  24   10   41 1
  25   11   12 ar
  26   11   29 1
  27   12   13 ar
  28   12   14 1
  29   13   42 1
  30   14   16 3
  31   16   17 1
  32   17   18 ar
  33   17   22 ar
  34   18   19 ar
  35   19   20 ar
  36   19   43 1
  37   20   21 ar
  38   20   44 1
  39   21   22 ar
  40   21   45 1
  41   22   46 1
  42   23   24 ar
  43   23   28 ar
  44   24   25 ar
  45   24   47 1
  46   25   26 ar
  47   25   48 1
  48   26   27 ar
  49   26   31 1
  50   27   28 ar
  51   29   30 1
  52   30   49 1
  53   30   50 1
  54   30   51 1

#	End of record

