#	Name: ASD01230289
#	Creating user name:	WinNT
#	Creation time:	15. 06. 2019 19:12

#	Modifying user name:	WinNT
#	Modification time:	15. 06. 2019 19:12

#	Program:	/corina/corina34_cracker 3.40 0067  02.08.2006

@<TRIPOS>MOLECULE
ASD01230289
  26   27    0    0    0
SMALL
NO_CHARGES


@<TRIPOS>ATOM
   1 C1            -0.0166     1.3731     0.0096 C.ar    
   2 C2             0.0021    -0.0041     0.0020 C.ar    
   3 C3             1.2059    -0.6868    -0.0132 C.ar    
   4 C4             2.3940     0.0228    -0.0073 C.ar    
   5 C5             2.3763     1.4020     0.0140 C.ar    
   6 C6             1.1781     2.0999     0.0021 C.ar    
   7 N7             1.0895     3.4843    -0.0546 N.3     
   8 S8             3.9049     2.2905     0.0886 S.o2    
   9 N9             3.4493     3.8888    -0.0845 N.am    
  10 C10            2.1697     4.2411     0.5647 C.3     
  11 Cl11           1.2254    -2.4225    -0.0388 Cl      
  12 O12            4.4042     2.1438     1.4109 O.2     
  13 O13            4.6424     1.9426    -1.0752 O.2     
  14 C14           -0.2197     3.9481     0.4237 C.3     
  15 C15           -0.1948     5.4696     0.5831 C.3     
  16 H16           -0.9616     1.8959     0.0169 H       
  17 H17           -0.9274    -0.5540     0.0083 H       
  18 H18            3.3366    -0.5042    -0.0191 H       
  19 H19            3.9825     4.5347    -0.5737 H       
  20 H20            1.9820     5.3081     0.4442 H       
  21 H21            2.2223     3.9981     1.6260 H       
  22 H22           -0.9889     3.6709    -0.2972 H       
  23 H23           -0.4398     3.4855     1.3858 H       
  24 H24            0.5744     5.7468     1.3039 H       
  25 H25            0.0253     5.9321    -0.3790 H       
  26 H26           -1.1662     5.8137     0.9380 H       
@<TRIPOS>BOND
   1    1    2 ar
   2    1    6 ar
   3    1   16 1
   4    2    3 ar
   5    2   17 1
   6    3    4 ar
   7    3   11 1
   8    4    5 ar
   9    4   18 1
  10    5    6 ar
  11    5    8 1
  12    6    7 1
  13    7   10 1
  14    7   14 1
  15    8    9 am
  16    8   12 2
  17    8   13 2
  18    9   10 1
  19    9   19 1
  20   10   20 1
  21   10   21 1
  22   14   15 1
  23   14   22 1
  24   14   23 1
  25   15   24 1
  26   15   25 1
  27   15   26 1

#	End of record

