#	Name: ASD01840437
#	Creating user name:	WinNT
#	Creation time:	15. 06. 2019 19:37

#	Modifying user name:	WinNT
#	Modification time:	15. 06. 2019 19:37

#	Program:	/corina/corina34_cracker 3.40 0067  02.08.2006

@<TRIPOS>MOLECULE
ASD01840437
  56   60    0    0    0
SMALL
NO_CHARGES


@<TRIPOS>ATOM
   1 C1             0.2611     1.7552    -0.9980 C.ar    
   2 C2             0.3841     0.5320    -1.6195 C.ar    
   3 N3             1.4990    -0.1677    -1.4965 N.ar    
   4 N4             2.4999     0.2427    -0.8111 N.ar    
   5 C5             1.3546     2.2267    -0.2364 C.ar    
   6 C6             1.5104     3.4570     0.5171 C.2     
   7 C7             2.4928     1.4121    -0.1670 C.ar    
   8 S8             3.7250     2.1824     0.8223 S.3     
   9 C9             2.7118     3.5783     1.1344 C.2     
  10 C10           -0.9999     2.5697    -1.1313 C.3     
  11 C11           -0.7562    -0.0106    -2.4419 C.3     
  12 N12            0.5179     4.4243     0.5985 N.pl3   
  13 C13            3.1102     4.7236     1.9514 C.2     
  14 O14            2.3404     5.6527     2.1138 O.2     
  15 N15            4.3297     4.7507     2.5248 N.am    
  16 C16            4.7288     5.8982     3.3434 C.3     
  17 C17            4.2634     5.7217     4.8129 C.3     
  18 C18            5.2854     6.5661     5.6030 C.3     
  19 N19            6.4861     6.6952     4.7644 N.am    
  20 C20            6.2680     5.9533     3.5092 C.3     
  21 C21            7.6010     7.3793     5.0890 C.2     
  22 C22            7.6873     8.0954     6.4122 C.3     
  23 C23            8.9793     8.8542     6.7219 C.3     
  24 C24            7.7006     9.6251     6.3880 C.3     
  25 C25            9.4492     8.8727     8.1536 C.ar    
  26 C26           10.6852     8.3481     8.4822 C.ar    
  27 C27           11.1162     8.3650     9.7955 C.ar    
  28 C28           10.3115     8.9070    10.7802 C.ar    
  29 C29            9.0758     9.4324    10.4514 C.ar    
  30 C30            8.6466     9.4194     9.1374 C.ar    
  31 O31            8.5349     7.4186     4.3162 O.2     
  32 H32           -1.6441     2.3852    -0.2716 H       
  33 H33           -0.7456     3.6287    -1.1742 H       
  34 H34           -1.5220     2.2841    -2.0445 H       
  35 H35           -0.6493     0.3210    -3.4747 H       
  36 H36           -0.7433    -1.1000    -2.4068 H       
  37 H37           -1.7008     0.3547    -2.0389 H       
  38 H38           -0.4028     4.1923     0.4002 H       
  39 H39            0.7452     5.3322     0.8537 H       
  40 H40            4.9430     4.0104     2.3954 H       
  41 H41            4.3471     6.8280     2.9216 H       
  42 H42            3.2546     6.1120     4.9475 H       
  43 H43            4.3158     4.6746     5.1110 H       
  44 H44            4.8701     7.5524     5.8101 H       
  45 H45            5.5378     6.0642     6.5370 H       
  46 H46            6.6775     4.9462     3.5878 H       
  47 H47            6.7211     6.4836     2.6715 H       
  48 H48            7.1774     7.6092     7.2439 H       
  49 H49            9.7669     8.8354     5.9686 H       
  50 H50            7.6469    10.1136     5.4150 H       
  51 H51            7.1992    10.1457     7.2039 H       
  52 H52           11.3140     7.9247     7.7129 H       
  53 H53           12.0816     7.9546    10.0524 H       
  54 H54           10.6479     8.9196    11.8063 H       
  55 H55            8.4469     9.8555    11.2207 H       
  56 H56            7.6829     9.8332     8.8800 H       
@<TRIPOS>BOND
   1    1    2 ar
   2    1    5 ar
   3    1   10 1
   4    2   11 1
   5    2    3 ar
   6    3    4 ar
   7    4    7 ar
   8    5    7 ar
   9    5    6 1
  10    6    9 2
  11    6   12 1
  12    7    8 1
  13    8    9 1
  14    9   13 1
  15   10   32 1
  16   10   33 1
  17   10   34 1
  18   11   35 1
  19   11   36 1
  20   11   37 1
  21   12   38 1
  22   12   39 1
  23   13   14 2
  24   13   15 am
  25   15   16 1
  26   15   40 1
  27   16   17 1
  28   16   20 1
  29   16   41 1
  30   17   18 1
  31   17   42 1
  32   17   43 1
  33   18   19 1
  34   18   44 1
  35   18   45 1
  36   19   20 1
  37   19   21 am
  38   20   46 1
  39   20   47 1
  40   21   22 1
  41   21   31 2
  42   22   23 1
  43   22   24 1
  44   22   48 1
  45   23   24 1
  46   23   25 1
  47   23   49 1
  48   24   50 1
  49   24   51 1
  50   25   26 ar
  51   25   30 ar
  52   26   27 ar
  53   26   52 1
  54   27   28 ar
  55   27   53 1
  56   28   29 ar
  57   28   54 1
  58   29   30 ar
  59   29   55 1
  60   30   56 1

#	End of record

