#	Name: ASD09530012
#	Creating user name:	WinNT
#	Creation time:	15. 06. 2019 21:22

#	Modifying user name:	WinNT
#	Modification time:	15. 06. 2019 21:22

#	Program:	/corina/corina34_cracker 3.40 0067  02.08.2006

@<TRIPOS>MOLECULE
ASD09530012
  40   42    0    0    0
SMALL
NO_CHARGES


@<TRIPOS>ATOM
   1 N1             0.4321    -1.3738     2.2531 N.am    
   2 C2             0.8772    -2.4598     1.6194 C.2     
   3 C3             2.2045    -2.5106     0.9131 C.3     
   4 N4             2.7291    -1.1427     0.7865 N.am    
   5 C5             2.6036    -0.2601     1.9587 C.3     
   6 C6             1.1156    -0.0878     2.2696 C.3     
   7 O7             0.1799    -3.4521     1.6125 O.2     
   8 C8             3.3019    -0.7142    -0.3558 C.2     
   9 O9             3.6555     0.4411    -0.4606 O.2     
  10 C10            3.5029    -1.6707    -1.5028 C.3     
  11 C11            2.2183    -1.7999    -2.2802 C.ar    
  12 C12            1.5553    -0.6664    -2.7123 C.ar    
  13 C13            0.3771    -0.7842    -3.4253 C.ar    
  14 C14           -0.1386    -2.0368    -3.7066 C.ar    
  15 C15            0.5254    -3.1708    -3.2739 C.ar    
  16 C16            1.7064    -3.0519    -2.5658 C.ar    
  17 Cl17          -1.6187    -2.1856    -4.6016 Cl      
  18 C18            4.5878    -1.1479    -2.4087 C.ar    
  19 C19            5.7312    -1.8956    -2.6202 C.ar    
  20 C20            6.7266    -1.4166    -3.4509 C.ar    
  21 C21            6.5785    -0.1886    -4.0708 C.ar    
  22 C22            5.4340     0.5592    -3.8587 C.ar    
  23 C23            4.4368     0.0766    -3.0323 C.ar    
  24 Cl24           7.8286     0.4139    -5.1138 Cl      
  25 H25           -0.4076    -1.4444     2.7334 H       
  26 H26            2.9023    -3.1171     1.4905 H       
  27 H27            2.0743    -2.9448    -0.0781 H       
  28 H28            3.1082    -0.7101     2.8136 H       
  29 H29            3.0479     0.7104     1.7377 H       
  30 H30            0.6665     0.5668     1.5226 H       
  31 H31            1.0050     0.3647     3.2550 H       
  32 H32            3.7926    -2.6473    -1.1150 H       
  33 H33            1.9578     0.3113    -2.4923 H       
  34 H34           -0.1410     0.1014    -3.7625 H       
  35 H35            0.1233    -4.1489    -3.4931 H       
  36 H36            2.2272    -3.9371    -2.2318 H       
  37 H37            5.8468    -2.8540    -2.1359 H       
  38 H38            7.6200    -2.0006    -3.6157 H       
  39 H39            5.3178     1.5178    -4.3424 H       
  40 H40            3.5414     0.6582    -2.8701 H       
@<TRIPOS>BOND
   1    1    2 am
   2    1    6 1
   3    1   25 1
   4    2    3 1
   5    2    7 2
   6    3    4 1
   7    3   26 1
   8    3   27 1
   9    4    5 1
  10    4    8 am
  11    5    6 1
  12    5   28 1
  13    5   29 1
  14    6   30 1
  15    6   31 1
  16    8    9 2
  17    8   10 1
  18   10   11 1
  19   10   18 1
  20   10   32 1
  21   11   12 ar
  22   11   16 ar
  23   12   13 ar
  24   12   33 1
  25   13   14 ar
  26   13   34 1
  27   14   15 ar
  28   14   17 1
  29   15   16 ar
  30   15   35 1
  31   16   36 1
  32   18   19 ar
  33   18   23 ar
  34   19   20 ar
  35   19   37 1
  36   20   21 ar
  37   20   38 1
  38   21   22 ar
  39   21   24 1
  40   22   23 ar
  41   22   39 1
  42   23   40 1

#	End of record

