#	Name: ASD07730028
#	Creating user name:	WinNT
#	Creation time:	15. 06. 2019 21:11

#	Modifying user name:	WinNT
#	Modification time:	15. 06. 2019 21:11

#	Program:	/corina/corina34_cracker 3.40 0067  02.08.2006

@<TRIPOS>MOLECULE
ASD07730028
  36   39    0    0    0
SMALL
NO_CHARGES


@<TRIPOS>ATOM
   1 N1            -0.0179     1.4659     0.0101 N.3     
   2 C2             0.0021    -0.0041     0.0020 C.3     
   3 C3             0.7497    -0.4921    -1.2417 C.3     
   4 O4             2.0659     0.0673    -1.2506 O.3     
   5 C5             2.0838     1.4973    -1.2437 C.3     
   6 C6             1.3496     2.0055    -0.0001 C.3     
   7 C7            -1.9771     1.5660     3.0004 C.ar    
   8 N8            -2.1400     2.8531     3.2274 N.ar    
   9 C9            -1.6081     3.7803     2.4006 C.ar    
  10 C10           -0.8792     3.3301     1.2963 C.ar    
  11 C11           -0.7333     1.9468     1.0947 C.ar    
  12 N12           -1.2894     1.1090     1.9589 N.ar    
  13 C13           -1.6678     5.1817     2.4696 C.2     
  14 C14           -1.0405     5.8328     1.5031 C.2     
  15 S15           -0.2921     4.7102     0.3797 S.3     
  16 C16           -2.5775     0.5918     3.9440 C.ar    
  17 C17           -3.2994     1.0412     5.0482 C.ar    
  18 C18           -3.8558     0.1302     5.9229 C.ar    
  19 C19           -3.6978    -1.2267     5.7055 C.ar    
  20 C20           -2.9823    -1.6785     4.6113 C.ar    
  21 C21           -2.4268    -0.7766     3.7266 C.ar    
  22 H22            0.5087    -0.3661     0.8967 H       
  23 H23           -1.0202    -0.3818    -0.0162 H       
  24 H24            0.8167    -1.5799    -1.2226 H       
  25 H25            0.2136    -0.1754    -2.1363 H       
  26 H26            3.1155     1.8483    -1.2262 H       
  27 H27            1.5864     1.8718    -2.1384 H       
  28 H28            1.3110     3.0946    -0.0198 H       
  29 H29            1.8778     1.6756     0.8946 H       
  30 H30           -2.1927     5.6957     3.2612 H       
  31 H31           -0.9952     6.9084     1.4171 H       
  32 H32           -3.4229     2.1004     5.2192 H       
  33 H33           -4.4155     0.4774     6.7789 H       
  34 H34           -4.1343    -1.9361     6.3930 H       
  35 H35           -2.8617    -2.7390     4.4467 H       
  36 H36           -1.8721    -1.1305     2.8701 H       
@<TRIPOS>BOND
   1    1    2 1
   2    1    6 1
   3    1   11 1
   4    2    3 1
   5    2   22 1
   6    2   23 1
   7    3    4 1
   8    3   24 1
   9    3   25 1
  10    4    5 1
  11    5    6 1
  12    5   26 1
  13    5   27 1
  14    6   28 1
  15    6   29 1
  16    7    8 ar
  17    7   12 ar
  18    7   16 1
  19    8    9 ar
  20    9   10 ar
  21    9   13 1
  22   10   11 ar
  23   10   15 1
  24   11   12 ar
  25   13   14 2
  26   13   30 1
  27   14   15 1
  28   14   31 1
  29   16   17 ar
  30   16   21 ar
  31   17   18 ar
  32   17   32 1
  33   18   19 ar
  34   18   33 1
  35   19   20 ar
  36   19   34 1
  37   20   21 ar
  38   20   35 1
  39   21   36 1

#	End of record

