#	Name: ASD01940550
#	Creating user name:	WinNT
#	Creation time:	15. 06. 2019 20:12

#	Modifying user name:	WinNT
#	Modification time:	15. 06. 2019 20:12

#	Program:	/corina/corina34_cracker 3.40 0067  02.08.2006

@<TRIPOS>MOLECULE
ASD01940550
  41   42    0    0    0
SMALL
NO_CHARGES


@<TRIPOS>ATOM
   1 C1             0.3981     1.6518    -0.1640 C.3     
   2 C2             0.5043     0.1272    -0.2362 C.3     
   3 C3            -0.8952    -0.4756    -0.3738 C.3     
   4 S4             2.0574     2.3665    -0.0009 S.o2    
   5 O5             2.6149     2.0482     1.2668 O.2     
   6 O6             2.8014     2.1777    -1.1967 O.2     
   7 N7             1.7987     4.0008     0.0655 N.am    
   8 C8             1.0310     4.5471     1.1027 C.ar    
   9 C9             0.2006     5.6398     0.8563 C.ar    
  10 C10           -0.5580     6.1766     1.8874 C.ar    
  11 C11           -0.4878     5.6256     3.1574 C.ar    
  12 C12            0.3375     4.5413     3.3995 C.ar    
  13 C13            1.0914     3.9986     2.3746 C.ar    
  14 N14            0.1324     6.1949    -0.4290 N.pl3   
  15 C15           -0.3751     7.4854    -0.6071 C.ar    
  16 C16            0.3785     8.5904    -0.2231 C.ar    
  17 C17           -0.1272     9.8645    -0.4010 C.ar    
  18 C18           -1.3804    10.0406    -0.9598 C.ar    
  19 C19           -2.1309     8.9445    -1.3421 C.ar    
  20 C20           -1.6297     7.6679    -1.1727 C.ar    
  21 C21           -1.9290    11.4310    -1.1519 C.3     
  22 F22           -1.5563    11.9094    -2.4127 F       
  23 F23           -3.3245    11.3987    -1.0593 F       
  24 F24           -1.4154    12.2759    -0.1621 F       
  25 F25            1.6022     8.4182     0.3230 F       
  26 F26           -1.2262     6.1482     4.1608 F       
  27 F27           -1.3637     7.2356     1.6535 F       
  28 Cl28          -0.7701    -2.2722    -0.4588 Cl      
  29 H29           -0.0712     2.0268    -1.0736 H       
  30 H30           -0.2053     1.9336     0.6989 H       
  31 H31            1.1077    -0.1545    -1.0991 H       
  32 H32            0.9736    -0.2477     0.6734 H       
  33 H33           -1.4986    -0.1938     0.4891 H       
  34 H34           -1.3645    -0.1006    -1.2833 H       
  35 H35            2.1785     4.5800    -0.6137 H       
  36 H36            0.3897     4.1150     4.3904 H       
  37 H37            1.7309     3.1497     2.5663 H       
  38 H38            0.4373     5.6836    -1.1949 H       
  39 H39            0.4563    10.7231    -0.1032 H       
  40 H40           -3.1088     9.0862    -1.7780 H       
  41 H41           -2.2154     6.8127    -1.4759 H       
@<TRIPOS>BOND
   1    1    2 1
   2    1    4 1
   3    1   29 1
   4    1   30 1
   5    2    3 1
   6    2   31 1
   7    2   32 1
   8    3   28 1
   9    3   33 1
  10    3   34 1
  11    4    5 2
  12    4    6 2
  13    4    7 am
  14    7    8 1
  15    7   35 1
  16    8    9 ar
  17    8   13 ar
  18    9   10 ar
  19    9   14 1
  20   10   11 ar
  21   10   27 1
  22   11   12 ar
  23   11   26 1
  24   12   13 ar
  25   12   36 1
  26   13   37 1
  27   14   15 1
  28   14   38 1
  29   15   16 ar
  30   15   20 ar
  31   16   17 ar
  32   16   25 1
  33   17   18 ar
  34   17   39 1
  35   18   19 ar
  36   18   21 1
  37   19   20 ar
  38   19   40 1
  39   20   41 1
  40   21   22 1
  41   21   23 1
  42   21   24 1

#	End of record

