#	Name: ASD01917138
#	Creating user name:	WinNT
#	Creation time:	15. 06. 2019 20:08

#	Modifying user name:	WinNT
#	Modification time:	15. 06. 2019 20:08

#	Program:	/corina/corina34_cracker 3.40 0067  02.08.2006

@<TRIPOS>MOLECULE
ASD01917138
  42   45    0    0    0
SMALL
NO_CHARGES


@<TRIPOS>ATOM
   1 C1            -0.0166     1.3750     0.0096 C.ar    
   2 C2             0.0021    -0.0041     0.0020 C.ar    
   3 C3             1.2078    -0.6830    -0.0127 C.ar    
   4 C4             2.4026     0.0150    -0.0199 C.ar    
   5 C5             2.3996     1.3942    -0.0124 C.ar    
   6 C6             1.1859     2.0866     0.0019 C.ar    
   7 C7             1.1746     3.5185     0.0093 C.1     
   8 C8             1.1654     4.6925     0.0153 C.1     
   9 C9             1.1541     6.1244     0.0226 C.ar    
  10 C10           -0.0581     6.8277     0.0434 C.ar    
  11 C11            2.3512     6.8446     0.0150 C.ar    
  12 N12            2.3399     8.1613     0.0222 N.ar    
  13 C13            1.2140     8.8487     0.0367 C.ar    
  14 C14           -0.0135     8.2102     0.0501 C.ar    
  15 C15           -1.2888     9.0128     0.0724 C.3     
  16 C16           -1.3108    11.3006     0.0518 C.2     
  17 N17           -1.1095    10.2460     0.8538 N.am    
  18 C18           -1.6335     9.5207    -1.3409 C.3     
  19 O19           -1.6125    10.9716    -1.2092 O.3     
  20 C20           -3.0036     9.0474    -1.7529 C.ar    
  21 C21           -4.1238     9.7685    -1.3840 C.ar    
  22 C22           -3.1399     7.8952    -2.5044 C.ar    
  23 C23           -4.3967     7.4610    -2.8822 C.ar    
  24 C24           -5.5173     8.1787    -2.5081 C.ar    
  25 C25           -5.3807     9.3343    -1.7618 C.ar    
  26 O26           -1.2273    12.4506     0.4352 O.2     
  27 H27           -0.9584     1.9036     0.0169 H       
  28 H28           -0.9266    -0.5554     0.0079 H       
  29 H29            1.2163    -1.7629    -0.0182 H       
  30 H30            3.3399    -0.5216    -0.0310 H       
  31 H31            3.3329     1.9376    -0.0174 H       
  32 H32           -1.0025     6.3038     0.0535 H       
  33 H33            3.2935     6.3171     0.0035 H       
  34 H34            1.2510     9.9280     0.0425 H       
  35 H35           -2.1078     8.4171     0.4755 H       
  36 H36           -0.8829    10.2890     1.7960 H       
  37 H37           -0.8825     9.1913    -2.0590 H       
  38 H38           -4.0171    10.6708    -0.8003 H       
  39 H39           -2.2644     7.3344    -2.7966 H       
  40 H40           -4.5031     6.5612    -3.4699 H       
  41 H41           -6.4992     7.8397    -2.8036 H       
  42 H42           -6.2559     9.8975    -1.4733 H       
@<TRIPOS>BOND
   1    1    2 ar
   2    1    6 ar
   3    1   27 1
   4    2    3 ar
   5    2   28 1
   6    3    4 ar
   7    3   29 1
   8    4    5 ar
   9    4   30 1
  10    5    6 ar
  11    5   31 1
  12    6    7 1
  13    7    8 3
  14    8    9 1
  15    9   11 ar
  16    9   10 ar
  17   10   14 ar
  18   10   32 1
  19   11   12 ar
  20   11   33 1
  21   12   13 ar
  22   13   14 ar
  23   13   34 1
  24   14   15 1
  25   15   18 1
  26   15   17 1
  27   15   35 1
  28   16   17 am
  29   16   19 1
  30   16   26 2
  31   17   36 1
  32   18   19 1
  33   18   20 1
  34   18   37 1
  35   20   22 ar
  36   20   21 ar
  37   21   25 ar
  38   21   38 1
  39   22   23 ar
  40   22   39 1
  41   23   24 ar
  42   23   40 1
  43   24   25 ar
  44   24   41 1
  45   25   42 1

#	End of record

