#	Name: ASD01190064
#	Creating user name:	WinNT
#	Creation time:	15. 06. 2019 19:07

#	Modifying user name:	WinNT
#	Modification time:	15. 06. 2019 19:07

#	Program:	/corina/corina34_cracker 3.40 0067  02.08.2006

@<TRIPOS>MOLECULE
ASD01190064
  58   62    0    0    0
SMALL
NO_CHARGES


@<TRIPOS>ATOM
   1 C1             2.4186    -2.5676    -7.1145 C.3     
   2 S2             1.1404    -2.6018    -5.8277 S.o2    
   3 O3             0.3239    -1.4414    -5.9050 O.2     
   4 O4             0.5649    -3.8974    -5.7309 O.2     
   5 N5             1.9764    -2.4194    -4.4099 N.am    
   6 C6             2.6367    -1.2713    -4.1599 C.2     
   7 O7             2.6186    -0.3719    -4.9732 O.2     
   8 C8             3.3974    -1.1053    -2.8697 C.3     
   9 C9             3.4033     1.3735    -2.4230 C.ar    
  10 C10            4.3449     2.4132    -2.5479 C.ar    
  11 C11            3.9845     3.7132    -2.1868 C.ar    
  12 C12            2.7020     3.9251    -1.7163 C.ar    
  13 C13            1.8268     2.8545    -1.6195 C.ar    
  14 N14            2.1867     1.6366    -1.9652 N.ar    
  15 N15            4.0227     0.2192    -2.8384 N.pl3   
  16 C16            5.5659     1.7982    -3.0712 C.2     
  17 C17            5.3103     0.4887    -3.2181 C.2     
  18 C18            6.8639     2.4996    -3.3785 C.3     
  19 C19            7.8911     1.4785    -3.8715 C.3     
  20 O20            6.6455     3.4829    -4.3921 O.3     
  21 N21            8.8200     5.2235     1.1340 N.pl3   
  22 N22            9.0354     6.4773     0.5526 N.2     
  23 C23            8.7027     6.4499    -0.7069 C.2     
  24 C24            8.2309     5.1036    -1.0151 C.ar    
  25 C25            7.7511     4.4825    -2.1736 C.ar    
  26 C26            7.3803     3.1697    -2.1314 C.ar    
  27 C27            7.4740     2.4453    -0.9494 C.ar    
  28 C28            7.9389     3.0299     0.1946 C.ar    
  29 C29            8.3250     4.3674     0.1819 C.ar    
  30 C30            9.0741     4.8929     2.4715 C.ar    
  31 C31           10.1551     5.4592     3.1343 C.ar    
  32 C32           10.4039     5.1319     4.4527 C.ar    
  33 C33            9.5763     4.2398     5.1137 C.ar    
  34 C34            8.4978     3.6740     4.4546 C.ar    
  35 C35            8.2422     4.0029     3.1379 C.ar    
  36 F36            9.8217     3.9206     6.4034 F       
  37 F37            7.4117     0.8564    -5.0292 F       
  38 F38            9.0960     2.1296    -4.1568 F       
  39 F39            8.1049     0.5157    -2.8792 F       
  40 H40            2.9491    -1.6163    -7.0744 H       
  41 H41            3.1225    -3.3833    -6.9492 H       
  42 H42            1.9523    -2.6827    -8.0929 H       
  43 H43            1.9909    -3.1387    -3.7594 H       
  44 H44            2.7115    -1.2032    -2.0282 H       
  45 H45            4.1684    -1.8727    -2.8011 H       
  46 H46            4.6872     4.5289    -2.2722 H       
  47 H47            2.3849     4.9159    -1.4264 H       
  48 H48            0.8257     3.0238    -1.2515 H       
  49 H49            6.0147    -0.2432    -3.5849 H       
  50 H50            6.0040     4.1640    -4.1477 H       
  51 H51            8.7646     7.2763    -1.3994 H       
  52 H52            7.6745     5.0390    -3.0960 H       
  53 H53            7.1753     1.4075    -0.9347 H       
  54 H54            8.0064     2.4557     1.1069 H       
  55 H55           10.8009     6.1547     2.6190 H       
  56 H56           11.2447     5.5718     4.9684 H       
  57 H57            7.8538     2.9781     4.9718 H       
  58 H58            7.3981     3.5652     2.6256 H       
@<TRIPOS>BOND
   1    1    2 1
   2    1   40 1
   3    1   41 1
   4    1   42 1
   5    2    3 2
   6    2    4 2
   7    2    5 am
   8    5    6 am
   9    5   43 1
  10    6    7 2
  11    6    8 1
  12    8   15 1
  13    8   44 1
  14    8   45 1
  15    9   10 ar
  16    9   14 ar
  17    9   15 1
  18   10   11 ar
  19   10   16 1
  20   11   12 ar
  21   11   46 1
  22   12   13 ar
  23   12   47 1
  24   13   14 ar
  25   13   48 1
  26   15   17 1
  27   16   17 2
  28   16   18 1
  29   17   49 1
  30   18   19 1
  31   18   20 1
  32   18   26 1
  33   19   37 1
  34   19   38 1
  35   19   39 1
  36   20   50 1
  37   21   22 1
  38   21   29 1
  39   21   30 1
  40   22   23 2
  41   23   24 1
  42   23   51 1
  43   24   25 ar
  44   24   29 ar
  45   25   26 ar
  46   25   52 1
  47   26   27 ar
  48   27   28 ar
  49   27   53 1
  50   28   29 ar
  51   28   54 1
  52   30   31 ar
  53   30   35 ar
  54   31   32 ar
  55   31   55 1
  56   32   33 ar
  57   32   56 1
  58   33   34 ar
  59   33   36 1
  60   34   35 ar
  61   34   57 1
  62   35   58 1

#	End of record

