#	Name: ASD01882352
#	Creating user name:	WinNT
#	Creation time:	15. 06. 2019 19:44

#	Modifying user name:	WinNT
#	Modification time:	15. 06. 2019 19:44

#	Program:	/corina/corina34_cracker 3.40 0067  02.08.2006

@<TRIPOS>MOLECULE
ASD01882352
  52   56    0    0    0
SMALL
NO_CHARGES


@<TRIPOS>ATOM
   1 C1             0.7325     1.4200     1.0811 C.2     
   2 C2             0.7681     0.0147     1.0979 C.2     
   3 C3             1.2066    -0.6546    -0.0130 C.2     
   4 C4             1.6135     0.0753    -1.1506 C.2     
   5 C5             1.5712     1.4222    -1.1448 C.2     
   6 N6             1.1358     2.0991    -0.0428 N.pl3   
   7 N7             0.5215     3.5067     1.4678 N.2     
   8 N8             0.3653     2.3319     1.9687 N.2     
   9 C9             0.9860     3.4230     0.2489 C.2     
  10 N10            1.2514    -2.0467    -0.0204 N.pl3   
  11 C11            2.5331    -2.7538    -0.1467 C.3     
  12 C12            2.4377    -3.7432    -1.3123 C.3     
  13 C13            1.2317    -4.6611    -1.0996 C.3     
  14 C14           -0.0494    -3.8245    -1.0701 C.3     
  15 C15            0.0184    -2.8360     0.1039 C.3     
  16 C16            1.1545    -5.6580    -2.2271 C.ar    
  17 C17            0.3513    -6.7766    -2.1069 C.ar    
  18 C18            0.2804    -7.6911    -3.1411 C.ar    
  19 C19            1.0125    -7.4867    -4.2958 C.ar    
  20 C20            1.8150    -6.3676    -4.4164 C.ar    
  21 C21            1.8825    -5.4509    -3.3838 C.ar    
  22 F22            1.3722    -5.3414     0.1148 F       
  23 C23            1.2967     4.5782    -0.6677 C.3     
  24 C24            0.0527     4.9285    -1.4865 C.3     
  25 C25            0.3682     6.1013    -2.4170 C.3     
  26 C26           -0.7167     6.5289    -3.4076 C.3     
  27 C27           -0.3996     7.4059    -2.1946 C.3     
  28 Cl28           0.2630    -0.8607     2.5093 Cl      
  29 H29            1.9606    -0.4479    -2.0294 H       
  30 H30            1.8851     1.9710    -2.0203 H       
  31 H31            3.3292    -2.0352    -0.3416 H       
  32 H32            2.7442    -3.2950     0.7756 H       
  33 H33            2.3169    -3.1945    -2.2463 H       
  34 H34            3.3473    -4.3421    -1.3566 H       
  35 H35           -0.1467    -3.2750    -2.0064 H       
  36 H36           -0.9099    -4.4812    -0.9419 H       
  37 H37            0.0286    -3.3837     1.0463 H       
  38 H38           -0.8453    -2.1717     0.0744 H       
  39 H39           -0.2207    -6.9363    -1.2048 H       
  40 H40           -0.3465    -8.5654    -3.0469 H       
  41 H41            0.9577    -8.2015    -5.1035 H       
  42 H42            2.3872    -6.2080    -5.3183 H       
  43 H43            2.5066    -4.5747    -3.4795 H       
  44 H44            1.5964     5.4422    -0.0745 H       
  45 H45            2.1081     4.3002    -1.3404 H       
  46 H46           -0.2470     4.0646    -2.0797 H       
  47 H47           -0.7587     5.2065    -0.8138 H       
  48 H48            1.4055     6.1768    -2.7432 H       
  49 H49           -0.3931     6.8860    -4.3852 H       
  50 H50           -1.6552     5.9747    -3.3963 H       
  51 H51           -1.1295     7.4287    -1.3854 H       
  52 H52            0.1326     8.3400    -2.3743 H       
@<TRIPOS>BOND
   1    1    2 1
   2    1    6 1
   3    1    8 2
   4    2    3 2
   5    2   28 1
   6    3    4 1
   7    3   10 1
   8    4    5 2
   9    4   29 1
  10    5    6 1
  11    5   30 1
  12    6    9 1
  13    7    8 1
  14    7    9 2
  15    9   23 1
  16   10   11 1
  17   10   15 1
  18   11   12 1
  19   11   31 1
  20   11   32 1
  21   12   13 1
  22   12   33 1
  23   12   34 1
  24   13   14 1
  25   13   16 1
  26   13   22 1
  27   14   15 1
  28   14   35 1
  29   14   36 1
  30   15   37 1
  31   15   38 1
  32   16   17 ar
  33   16   21 ar
  34   17   18 ar
  35   17   39 1
  36   18   19 ar
  37   18   40 1
  38   19   20 ar
  39   19   41 1
  40   20   21 ar
  41   20   42 1
  42   21   43 1
  43   23   24 1
  44   23   44 1
  45   23   45 1
  46   24   25 1
  47   24   46 1
  48   24   47 1
  49   25   26 1
  50   25   27 1
  51   25   48 1
  52   26   27 1
  53   26   49 1
  54   26   50 1
  55   27   51 1
  56   27   52 1

#	End of record

