#	Name: ASD01916433
#	Creating user name:	WinNT
#	Creation time:	15. 06. 2019 20:07

#	Modifying user name:	WinNT
#	Modification time:	15. 06. 2019 20:07

#	Program:	/corina/corina34_cracker 3.40 0067  02.08.2006

@<TRIPOS>MOLECULE
ASD01916433
  36   37    0    0    0
SMALL
NO_CHARGES


@<TRIPOS>ATOM
   1 C1            -0.0179     1.4712     0.0101 C.2     
   2 C2             0.0021    -0.0041     0.0020 C.ar    
   3 C3             0.0232    -0.7140     1.2074 C.ar    
   4 C4             0.0413    -2.0960     1.1905 C.ar    
   5 C5             0.0392    -2.7769    -0.0132 C.ar    
   6 C6             0.0184    -2.0831    -1.2094 C.ar    
   7 C7            -0.0058    -0.7011    -1.2110 C.ar    
   8 O8             1.0267     2.0934     0.0035 O.2     
   9 N9            -1.1942     2.1291     0.0193 N.am    
  10 C10           -1.2140     3.5940     0.0273 C.3     
  11 C11           -1.2278     4.1118    -1.4123 C.3     
  12 C12           -1.2478     5.5836    -1.4042 C.1     
  13 C13           -1.2637     6.7575    -1.3978 C.1     
  14 C14           -1.2831     8.1893    -1.3899 C.ar    
  15 C15           -1.2982     8.8882    -2.5976 C.ar    
  16 C16           -1.3169    10.2713    -2.5732 C.ar    
  17 C17           -1.3199    10.9127    -1.3421 C.ar    
  18 C18           -1.3042    10.1582    -0.1836 C.ar    
  19 N19           -1.2920     8.8418    -0.2333 N.ar    
  20 C20           -2.4528     1.3795     0.0212 C.3     
  21 F21           -0.0318    -0.0252    -2.3805 F       
  22 F22            0.0262    -0.0507     2.3843 F       
  23 H23            0.0576    -2.6456     2.1201 H       
  24 H24            0.0542    -3.8568    -0.0192 H       
  25 H25            0.0172    -2.6227    -2.1450 H       
  26 H26           -2.1064     3.9424     0.5473 H       
  27 H27           -0.3266     3.9666     0.5390 H       
  28 H28           -0.3354     3.7634    -1.9323 H       
  29 H29           -2.1152     3.7392    -1.9240 H       
  30 H30           -1.2951     8.3570    -3.5379 H       
  31 H31           -1.3286    10.8395    -3.4916 H       
  32 H32           -1.3340    11.9914    -1.2897 H       
  33 H33           -1.3061    10.6549     0.7755 H       
  34 H34           -2.7601     1.1880     1.0493 H       
  35 H35           -3.2228     1.9610    -0.4859 H       
  36 H36           -2.3120     0.4317    -0.4985 H       
@<TRIPOS>BOND
   1    1    2 1
   2    1    8 2
   3    1    9 am
   4    2    3 ar
   5    2    7 ar
   6    3    4 ar
   7    3   22 1
   8    4    5 ar
   9    4   23 1
  10    5    6 ar
  11    5   24 1
  12    6    7 ar
  13    6   25 1
  14    7   21 1
  15    9   10 1
  16    9   20 1
  17   10   11 1
  18   10   26 1
  19   10   27 1
  20   11   12 1
  21   11   28 1
  22   11   29 1
  23   12   13 3
  24   13   14 1
  25   14   15 ar
  26   14   19 ar
  27   15   16 ar
  28   15   30 1
  29   16   17 ar
  30   16   31 1
  31   17   18 ar
  32   17   32 1
  33   18   19 ar
  34   18   33 1
  35   20   34 1
  36   20   35 1
  37   20   36 1

#	End of record

