#	Name: ASD01148787
#	Creating user name:	WinNT
#	Creation time:	15. 06. 2019 19:03

#	Modifying user name:	WinNT
#	Modification time:	15. 06. 2019 19:03

#	Program:	/corina/corina34_cracker 3.40 0067  02.08.2006

@<TRIPOS>MOLECULE
ASD01148787
  62   65    0    0    0
SMALL
NO_CHARGES


@<TRIPOS>ATOM
   1 N1            -0.2123     1.1004    -0.1244 N.pl3   
   2 C2            -0.1902    -0.2515    -0.0559 C.2     
   3 C3             1.0881    -0.6622     0.2524 C.2     
   4 C4             1.8960     0.5623     0.3776 C.2     
   5 C5             1.0345     1.6134     0.1335 C.2     
   6 C6             1.5526    -2.0464     0.4228 C.2     
   7 O7             1.9769    -2.6671    -0.5324 O.2     
   8 O8             1.5080    -2.6275     1.6384 O.3     
   9 C9            -1.3462     1.8672    -0.4222 C.ar    
  10 C10           -2.3992     1.9318     0.4806 C.ar    
  11 C11           -3.5156     2.6890     0.1842 C.ar    
  12 C12           -3.5853     3.3824    -1.0102 C.ar    
  13 C13           -2.5385     3.3197    -1.9115 C.ar    
  14 C14           -1.4170     2.5688    -1.6184 C.ar    
  15 S15           -5.0113     4.3474    -1.3846 S.o2    
  16 O16           -5.0567     4.4638    -2.8001 O.2     
  17 O17           -6.0758     3.8057    -0.6148 O.2     
  18 N18           -4.7391     5.8721    -0.7985 N.am    
  19 C19           -1.3720    -1.1594    -0.2798 C.3     
  20 C20            1.3934     3.0456     0.1475 C.ar    
  21 C21            0.6677     3.9427     0.9344 C.ar    
  22 C22            1.0083     5.2791     0.9434 C.ar    
  23 C23            2.0669     5.7322     0.1740 C.ar    
  24 C24            2.7903     4.8477    -0.6084 C.ar    
  25 C25            2.4635     3.5079    -0.6218 C.ar    
  26 Cl26           2.4885     7.4161     0.1900 Cl      
  27 C27            3.3384     0.6489     0.6997 C.ar    
  28 C28            4.2849     0.1810    -0.2078 C.ar    
  29 C29            5.6430     0.2665     0.1040 C.ar    
  30 C30            6.0425     0.8213     1.3251 C.ar    
  31 C31            5.0971     1.2819     2.2183 C.ar    
  32 C32            3.7521     1.2052     1.9117 C.ar    
  33 C33            6.6516    -0.2258    -0.8484 C.2     
  34 O34            6.3120    -0.6056    -1.9487 O.2     
  35 C35            8.1062    -0.2578    -0.4560 C.3     
  36 C36            1.9830    -3.9964     1.7324 C.3     
  37 C37            1.8559    -4.4821     3.1777 C.3     
  38 H38           -2.3455     1.3902     1.4134 H       
  39 H39           -4.3351     2.7394     0.8858 H       
  40 H40           -2.5962     3.8618    -2.8438 H       
  41 H41           -0.5977     2.5240    -2.3207 H       
  42 H42           -3.9049     6.0767    -0.3478 H       
  43 H43           -5.4139     6.5606    -0.9059 H       
  44 H44           -1.4311    -1.4253    -1.3352 H       
  45 H45           -1.2534    -2.0640     0.3167 H       
  46 H46           -2.2863    -0.6456     0.0172 H       
  47 H47           -0.1585     3.5907     1.5343 H       
  48 H48            0.4480     5.9739     1.5515 H       
  49 H49            3.6148     5.2072    -1.2062 H       
  50 H50            3.0313     2.8184    -1.2289 H       
  51 H51            3.9700    -0.2464    -1.1483 H       
  52 H52            7.0924     0.8887     1.5689 H       
  53 H53            5.4102     1.7086     3.1597 H       
  54 H54            3.0182     1.5723     2.6139 H       
  55 H55            8.2161     0.1146     0.5625 H       
  56 H56            8.4747    -1.2822    -0.5100 H       
  57 H57            8.6801     0.3711    -1.1367 H       
  58 H58            1.3853    -4.6339     1.0810 H       
  59 H59            3.0278    -4.0404     1.4249 H       
  60 H60            0.8111    -4.4381     3.4852 H       
  61 H61            2.2124    -5.5097     3.2483 H       
  62 H62            2.4535    -3.8446     3.8292 H       
@<TRIPOS>BOND
   1    1    2 1
   2    1    5 1
   3    1    9 1
   4    2    3 2
   5    2   19 1
   6    3    4 1
   7    3    6 1
   8    4    5 2
   9    4   27 1
  10    5   20 1
  11    6    7 2
  12    6    8 1
  13    8   36 1
  14    9   10 ar
  15    9   14 ar
  16   10   11 ar
  17   10   38 1
  18   11   12 ar
  19   11   39 1
  20   12   13 ar
  21   12   15 1
  22   13   14 ar
  23   13   40 1
  24   14   41 1
  25   15   16 2
  26   15   17 2
  27   15   18 am
  28   18   42 1
  29   18   43 1
  30   19   44 1
  31   19   45 1
  32   19   46 1
  33   20   21 ar
  34   20   25 ar
  35   21   22 ar
  36   21   47 1
  37   22   23 ar
  38   22   48 1
  39   23   24 ar
  40   23   26 1
  41   24   25 ar
  42   24   49 1
  43   25   50 1
  44   27   28 ar
  45   27   32 ar
  46   28   29 ar
  47   28   51 1
  48   29   30 ar
  49   29   33 1
  50   30   31 ar
  51   30   52 1
  52   31   32 ar
  53   31   53 1
  54   32   54 1
  55   33   34 2
  56   33   35 1
  57   35   55 1
  58   35   56 1
  59   35   57 1
  60   36   37 1
  61   36   58 1
  62   36   59 1
  63   37   60 1
  64   37   61 1
  65   37   62 1

#	End of record

