#	Name: ASD01813793
#	Creating user name:	WinNT
#	Creation time:	15. 06. 2019 19:31

#	Modifying user name:	WinNT
#	Modification time:	15. 06. 2019 19:31

#	Program:	/corina/corina34_cracker 3.40 0067  02.08.2006

@<TRIPOS>MOLECULE
ASD01813793
  55   58    0    0    0
SMALL
NO_CHARGES


@<TRIPOS>ATOM
   1 C1            -0.0169     1.3972     0.0097 C.2     
   2 C2             0.0021    -0.0041     0.0020 C.2     
   3 C3             1.1986    -0.6593    -0.0129 C.2     
   4 C4             2.3918     0.0821    -0.0204 C.2     
   5 N5             2.3438     1.4497    -0.0122 N.am    
   6 C6             1.1421     2.0936     0.0024 C.2     
   7 C7             3.6227    -0.5889    -0.0356 C.2     
   8 C8             4.7877     0.1218    -0.0430 C.2     
   9 C9             4.7345     1.5280    -0.0351 C.2     
  10 C10            3.4812     2.1736    -0.0189 C.2     
  11 O11            3.4258     3.3917    -0.0123 O.2     
  12 C12            5.9703     2.3140    -0.0422 C.2     
  13 O13            7.0487     1.7516    -0.0551 O.2     
  14 O14            5.9124     3.6618    -0.0346 O.3     
  15 C15            3.6593    -2.0954    -0.0434 C.3     
  16 N16            3.7785    -2.5752    -1.4268 N.3     
  17 C17            4.0547    -4.0181    -1.4618 C.3     
  18 C18            4.2502    -4.4623    -2.9133 C.3     
  19 N19            3.0434    -4.1411    -3.6879 N.3     
  20 C20            2.7672    -2.6981    -3.6529 C.3     
  21 C21            2.5717    -2.2539    -2.2014 C.3     
  22 C22            3.1569    -4.5981    -5.0057 C.ar    
  23 C23            2.1182    -4.3927    -5.9041 C.ar    
  24 C24            2.2311    -4.8442    -7.2045 C.ar    
  25 C25            3.3813    -5.5029    -7.6130 C.ar    
  26 C26            4.4191    -5.7088    -6.7161 C.ar    
  27 C27            4.3107    -5.2522    -5.4172 C.ar    
  28 C28            5.3249    -4.3142    -0.6619 C.3     
  29 O29            3.4914    -5.9475    -8.8935 O.3     
  30 C30            4.7035    -6.6175    -9.2457 C.3     
  31 H31           -0.9605     1.9226     0.0170 H       
  32 H32           -0.9233    -0.5609     0.0082 H       
  33 H33            1.2282    -1.7389    -0.0187 H       
  34 H34            1.1156     3.1733     0.0091 H       
  35 H35            5.7392    -0.3889    -0.0544 H       
  36 H36            6.7544     4.1373    -0.0398 H       
  37 H37            4.5154    -2.4410     0.5360 H       
  38 H38            2.7413    -2.4834     0.3979 H       
  39 H39            3.2154    -4.5597    -1.0257 H       
  40 H40            5.1064    -3.9407    -3.3410 H       
  41 H41            4.4266    -5.5375    -2.9440 H       
  42 H42            3.6065    -2.1565    -4.0890 H       
  43 H43            1.8623    -2.4872    -4.2228 H       
  44 H44            1.7155    -2.7755    -1.7737 H       
  45 H45            2.3953    -1.1787    -2.1707 H       
  46 H46            1.2222    -3.8805    -5.5860 H       
  47 H47            1.4233    -4.6845    -7.9034 H       
  48 H48            5.3143    -6.2221    -7.0349 H       
  49 H49            5.1190    -5.4123    -4.7191 H       
  50 H50            5.1861    -3.9960     0.3714 H       
  51 H51            5.5295    -5.3845    -0.6881 H       
  52 H52            6.1640    -3.7731    -1.0991 H       
  53 H53            4.6609    -6.9194   -10.2922 H       
  54 H54            5.5476    -5.9443    -9.0958 H       
  55 H55            4.8265    -7.4999    -8.6177 H       
@<TRIPOS>BOND
   1    1    2 1
   2    1    6 2
   3    1   31 1
   4    2    3 2
   5    2   32 1
   6    3    4 1
   7    3   33 1
   8    4    5 1
   9    4    7 2
  10    5    6 1
  11    5   10 am
  12    6   34 1
  13    7    8 1
  14    7   15 1
  15    8    9 2
  16    8   35 1
  17    9   10 1
  18    9   12 1
  19   10   11 2
  20   12   13 2
  21   12   14 1
  22   14   36 1
  23   15   16 1
  24   15   37 1
  25   15   38 1
  26   16   17 1
  27   16   21 1
  28   17   18 1
  29   17   28 1
  30   17   39 1
  31   18   19 1
  32   18   40 1
  33   18   41 1
  34   19   20 1
  35   19   22 1
  36   20   21 1
  37   20   42 1
  38   20   43 1
  39   21   44 1
  40   21   45 1
  41   22   23 ar
  42   22   27 ar
  43   23   24 ar
  44   23   46 1
  45   24   25 ar
  46   24   47 1
  47   25   26 ar
  48   25   29 1
  49   26   27 ar
  50   26   48 1
  51   27   49 1
  52   28   50 1
  53   28   51 1
  54   28   52 1
  55   29   30 1
  56   30   53 1
  57   30   54 1
  58   30   55 1

#	End of record

