#	Name: ASD01840194
#	Creating user name:	WinNT
#	Creation time:	15. 06. 2019 19:37

#	Modifying user name:	WinNT
#	Modification time:	15. 06. 2019 19:37

#	Program:	/corina/corina34_cracker 3.40 0067  02.08.2006

@<TRIPOS>MOLECULE
ASD01840194
  45   48    0    0    0
SMALL
NO_CHARGES


@<TRIPOS>ATOM
   1 C1            -0.0215     1.4272    -0.0676 C.ar    
   2 C2            -0.0080     0.0347    -0.0828 C.ar    
   3 N3             1.1135    -0.6450    -0.0922 N.ar    
   4 C4             2.2999    -0.0303    -0.0881 C.ar    
   5 C5             2.3586     1.3863    -0.0733 C.ar    
   6 C6             1.1561     2.1197    -0.0627 C.ar    
   7 C7             1.1683     3.6266    -0.0473 C.3     
   8 C8            -1.3175    -0.7112    -0.0881 C.3     
   9 C9             3.4966    -0.7715    -0.0977 C.ar    
  10 C10            4.6935    -0.1321    -0.0926 C.ar    
  11 C11            4.7625     1.2725    -0.0775 C.ar    
  12 C12            3.6033     2.0312    -0.0681 C.ar    
  13 C13            6.0793     1.9430    -0.0717 C.2     
  14 N14            7.2094     1.2088    -0.0808 N.am    
  15 O15            6.1431     3.1569    -0.0587 O.2     
  16 C16            8.5149     1.8736    -0.0751 C.3     
  17 C17            9.6472     1.0104     0.5100 C.3     
  18 C18            9.2661     1.7755    -1.4151 C.3     
  19 N19           10.4769     1.5192    -0.6044 N.3     
  20 C20           11.2445     0.4986    -1.1619 C.ar    
  21 C21           11.6107    -0.6150    -0.4067 C.ar    
  22 C22           12.3705    -1.6046    -0.9940 C.ar    
  23 N23           12.7515    -1.5089    -2.2543 N.ar    
  24 C24           12.4262    -0.4707    -3.0052 C.ar    
  25 C25           11.6614     0.5618    -2.4918 C.ar    
  26 F26           12.8408    -0.4196    -4.2899 F       
  27 F27           11.3320     1.6204    -3.2638 F       
  28 H28           -0.9615     1.9589    -0.0642 H       
  29 H29            1.1686     4.0004    -1.0712 H       
  30 H30            0.2826     3.9918     0.4726 H       
  31 H31            2.0625     3.9775     0.4679 H       
  32 H32           -1.6355    -0.8799    -1.1169 H       
  33 H33           -1.1916    -1.6699     0.4151 H       
  34 H34           -2.0726    -0.1234     0.4339 H       
  35 H35            3.4621    -1.8509    -0.1090 H       
  36 H36            5.6058    -0.7100    -0.0997 H       
  37 H37            3.6581     3.1098    -0.0566 H       
  38 H38            7.1585     0.2402    -0.0912 H       
  39 H39            8.4759     2.8828     0.3351 H       
  40 H40            9.9849     1.3369     1.4936 H       
  41 H41            9.4534    -0.0610     0.4596 H       
  42 H42            8.9608     0.9278    -2.0286 H       
  43 H43            9.2992     2.7133    -1.9697 H       
  44 H44           11.3036    -0.7011     0.6251 H       
  45 H45           12.6580    -2.4696    -0.4149 H       
@<TRIPOS>BOND
   1    1    2 ar
   2    1    6 ar
   3    1   28 1
   4    2    3 ar
   5    2    8 1
   6    3    4 ar
   7    4    5 ar
   8    4    9 ar
   9    5    6 ar
  10    5   12 ar
  11    6    7 1
  12    7   29 1
  13    7   30 1
  14    7   31 1
  15    8   32 1
  16    8   33 1
  17    8   34 1
  18    9   10 ar
  19    9   35 1
  20   10   11 ar
  21   10   36 1
  22   11   12 ar
  23   11   13 1
  24   12   37 1
  25   13   14 am
  26   13   15 2
  27   14   16 1
  28   14   38 1
  29   16   17 1
  30   16   18 1
  31   16   39 1
  32   17   19 1
  33   17   40 1
  34   17   41 1
  35   18   19 1
  36   18   42 1
  37   18   43 1
  38   19   20 1
  39   20   21 ar
  40   20   25 ar
  41   21   22 ar
  42   21   44 1
  43   22   23 ar
  44   22   45 1
  45   23   24 ar
  46   24   25 ar
  47   24   26 1
  48   25   27 1

#	End of record

