#	Name: ASD07300941
#	Creating user name:	WinNT
#	Creation time:	15. 06. 2019 21:10

#	Modifying user name:	WinNT
#	Modification time:	15. 06. 2019 21:10

#	Program:	/corina/corina34_cracker 3.40 0067  02.08.2006

@<TRIPOS>MOLECULE
ASD07300941
  49   53    0    0    0
SMALL
NO_CHARGES


@<TRIPOS>ATOM
   1 N1            -0.3740     1.8227     0.1919 N.am    
   2 C2            -0.1387     0.4914     0.3082 C.2     
   3 N3             1.0448    -0.0334     0.1829 N.2     
   4 C4             2.1289     0.7155    -0.0739 C.2     
   5 C5             1.9838     2.1049    -0.2115 C.2     
   6 C6             0.6447     2.6758    -0.0667 C.2     
   7 N7             3.4481     0.4440    -0.2497 N.pl3   
   8 N8             4.1168     1.6501    -0.4940 N.2     
   9 C9             3.2611     2.6345    -0.4733 C.2     
  10 O10            0.4534     3.8740    -0.1754 O.2     
  11 C11            4.0657    -0.8833    -0.1931 C.3     
  12 C12            4.7831    -1.1687    -1.5140 C.3     
  13 C13            5.4282    -2.5548    -1.4548 C.3     
  14 C14            6.4379    -2.5988    -0.3061 C.3     
  15 C15            5.7206    -2.3133     1.0148 C.3     
  16 C16            5.0755    -0.9272     0.9556 C.3     
  17 C17           -1.3026    -0.4214     0.5964 C.3     
  18 C18           -2.0757    -0.8501    -0.6620 C.3     
  19 C19           -2.1775    -2.2473    -0.0278 C.3     
  20 C20           -0.9026    -1.8975     0.7577 C.3     
  21 F21            7.0278    -3.8662    -0.2520 F       
  22 F22            7.4273    -1.6327    -0.5178 F       
  23 C23           -1.2468    -0.8171    -1.9201 C.2     
  24 C24           -1.4219     0.0093    -2.9556 C.2     
  25 N25           -0.5635    -0.1599    -3.9411 N.2     
  26 C26            0.3259    -1.0830    -3.7946 C.2     
  27 S27            0.1292    -1.8564    -2.2825 S.3     
  28 C28            1.3885    -1.4254    -4.8068 C.3     
  29 H29           -1.2766     2.1640     0.2904 H       
  30 H30            3.4932     3.6775    -0.6302 H       
  31 H31            3.2949    -1.6360    -0.0282 H       
  32 H32            4.0637    -1.1374    -2.3323 H       
  33 H33            5.5540    -0.4160    -1.6789 H       
  34 H34            4.6573    -3.3076    -1.2899 H       
  35 H35            5.9393    -2.7582    -2.3958 H       
  36 H36            4.9497    -3.0661     1.1796 H       
  37 H37            6.4399    -2.3447     1.8331 H       
  38 H38            5.8464    -0.1745     0.7907 H       
  39 H39            4.5644    -0.7238     1.8966 H       
  40 H40           -1.9428    -0.0511     1.3971 H       
  41 H41           -3.0379    -0.3505    -0.7747 H       
  42 H42           -3.0570    -2.3775     0.6028 H       
  43 H43           -2.0420    -3.0611    -0.7402 H       
  44 H44            0.0176    -2.1601     0.2359 H       
  45 H45           -0.9178    -2.2436     1.7912 H       
  46 H46           -2.2029     0.7547    -2.9826 H       
  47 H47            2.3080    -0.8934    -4.5625 H       
  48 H48            1.5745    -2.4993    -4.7892 H       
  49 H49            1.0517    -1.1313    -5.8009 H       
@<TRIPOS>BOND
   1    1    2 1
   2    1    6 am
   3    1   29 1
   4    2    3 2
   5    2   17 1
   6    3    4 1
   7    4    5 2
   8    4    7 1
   9    5    6 1
  10    5    9 1
  11    6   10 2
  12    7    8 1
  13    7   11 1
  14    8    9 2
  15    9   30 1
  16   11   12 1
  17   11   16 1
  18   11   31 1
  19   12   13 1
  20   12   32 1
  21   12   33 1
  22   13   14 1
  23   13   34 1
  24   13   35 1
  25   14   15 1
  26   14   21 1
  27   14   22 1
  28   15   16 1
  29   15   36 1
  30   15   37 1
  31   16   38 1
  32   16   39 1
  33   17   18 1
  34   17   20 1
  35   17   40 1
  36   18   19 1
  37   18   23 1
  38   18   41 1
  39   19   20 1
  40   19   42 1
  41   19   43 1
  42   20   44 1
  43   20   45 1
  44   23   24 2
  45   23   27 1
  46   24   25 1
  47   24   46 1
  48   25   26 2
  49   26   27 1
  50   26   28 1
  51   28   47 1
  52   28   48 1
  53   28   49 1

#	End of record

