#	Name: ASD01140532
#	Creating user name:	WinNT
#	Creation time:	15. 06. 2019 19:01

#	Modifying user name:	WinNT
#	Modification time:	15. 06. 2019 19:01

#	Program:	/corina/corina34_cracker 3.40 0067  02.08.2006

@<TRIPOS>MOLECULE
ASD01140532
  56   59    0    0    0
SMALL
NO_CHARGES


@<TRIPOS>ATOM
   1 C1            -0.0923     1.5446     0.0666 C.3     
   2 C2            -0.0927     0.0147     0.0709 C.3     
   3 C3             0.6062    -0.4990    -1.1894 C.3     
   4 C4             2.0489     0.0099    -1.2149 C.3     
   5 C5             2.0493     1.5395    -1.2201 C.3     
   6 C6             1.3499     2.0558     0.0392 C.3     
   7 C7             1.3467     3.5850     0.0270 C.3     
   8 C8             3.4908     2.0508    -1.2500 C.3     
   9 C9             3.4903     3.5808    -1.2578 C.3     
  10 C10            2.7957     4.0960     0.0036 C.3     
  11 C11            0.6380     5.6518     1.3021 C.3     
  12 C12            0.5862     4.1159     1.2374 C.3     
  13 C13            2.0999     6.0528     1.3369 C.3     
  14 C14            2.3946     7.5485     1.3900 C.3     
  15 C15            2.7358     5.6121    -0.0094 C.3     
  16 C16            4.0857     6.3363     0.0331 C.3     
  17 C17            3.7114     7.7349     0.5956 C.3     
  18 C18            2.0934     1.5538     1.2786 C.3     
  19 C19            2.8028     5.3454     2.4972 C.3     
  20 C20            0.6050    -2.0290    -1.1857 C.3     
  21 O21           -0.0868    -0.0246    -2.3455 O.3     
  22 H22            3.3260     3.7408     0.8872 H       
  23 H23            1.5200     1.8994    -2.1025 H       
  24 H24            0.8376     3.9287    -0.8734 H       
  25 H25            2.1324     5.9602    -0.8478 H       
  26 O26            2.5691     7.9710     2.7439 O.3     
  27 H27           -0.6222     1.9054    -0.8149 H       
  28 H28           -0.5902     1.9104     0.9645 H       
  29 H29            0.4366    -0.3463     0.9527 H       
  30 H30           -1.1203    -0.3482     0.0900 H       
  31 H31            2.5771    -0.3506    -0.3322 H       
  32 H32            2.5478    -0.3567    -2.1120 H       
  33 H33            4.0217     1.6922    -0.3681 H       
  34 H34            3.9880     1.6832    -2.1476 H       
  35 H35            4.5176     3.9444    -1.2812 H       
  36 H36            2.9576     3.9396    -2.1384 H       
  37 H37            0.1579     6.0765     0.4204 H       
  38 H38            0.1359     6.0022     2.2038 H       
  39 H39           -0.4540     3.7964     1.1733 H       
  40 H40            1.0289     3.7055     2.1450 H       
  41 H41            1.5871     8.1095     0.9196 H       
  42 H42            4.7774     5.8240     0.7019 H       
  43 H43            4.5084     6.4235    -0.9678 H       
  44 H44            3.5582     8.4384    -0.2227 H       
  45 H45            4.4994     8.0952     1.2569 H       
  46 H46            2.0947     0.4639     1.2849 H       
  47 H47            3.1205     1.9183     1.2585 H       
  48 H48            1.5948     1.9218     2.1753 H       
  49 H49            2.6677     4.2680     2.4012 H       
  50 H50            3.8667     5.5815     2.4757 H       
  51 H51            2.3747     5.6826     3.4412 H       
  52 H52           -0.4228    -2.3914    -1.1669 H       
  53 H53            1.1030    -2.3949    -2.0836 H       
  54 H54            1.1339    -2.3906    -0.3039 H       
  55 H55           -1.0097    -0.3090    -2.3951 H       
  56 H56            2.7593     8.9142     2.8402 H       
@<TRIPOS>BOND
   1    1    2 1
   2    1    6 1
   3    1   27 1
   4    1   28 1
   5    2    3 1
   6    2   29 1
   7    2   30 1
   8    3    4 1
   9    3   20 1
  10    3   21 1
  11    4    5 1
  12    4   31 1
  13    4   32 1
  14    5    6 1
  15    5    8 1
  16    5   23 1
  17    6    7 1
  18    6   18 1
  19    7   10 1
  20    7   24 1
  21    7   12 1
  22    8    9 1
  23    8   33 1
  24    8   34 1
  25    9   10 1
  26    9   35 1
  27    9   36 1
  28   10   15 1
  29   10   22 1
  30   11   12 1
  31   11   13 1
  32   11   37 1
  33   11   38 1
  34   12   39 1
  35   12   40 1
  36   13   15 1
  37   13   19 1
  38   13   14 1
  39   14   17 1
  40   14   26 1
  41   14   41 1
  42   15   16 1
  43   15   25 1
  44   16   17 1
  45   16   42 1
  46   16   43 1
  47   17   44 1
  48   17   45 1
  49   18   46 1
  50   18   47 1
  51   18   48 1
  52   19   49 1
  53   19   50 1
  54   19   51 1
  55   20   52 1
  56   20   53 1
  57   20   54 1
  58   21   55 1
  59   26   56 1

#	End of record

