#	Name: ASD02408179
#	Creating user name:	WinNT
#	Creation time:	15. 06. 2019 20:21

#	Modifying user name:	WinNT
#	Modification time:	15. 06. 2019 20:21

#	Program:	/corina/corina34_cracker 3.40 0067  02.08.2006

@<TRIPOS>MOLECULE
ASD02408179
  55   58    0    0    0
SMALL
NO_CHARGES


@<TRIPOS>ATOM
   1 C1            -0.4007     3.0071    -0.8532 C.ar    
   2 C2            -0.6016     1.6581    -0.6284 C.ar    
   3 C3             0.4765     0.8323    -0.3703 C.ar    
   4 C4             1.7556     1.3555    -0.3375 C.ar    
   5 C5             1.9566     2.7044    -0.5632 C.ar    
   6 C6             0.8784     3.5304    -0.8199 C.ar    
   7 C7             2.9308     0.4554    -0.0551 C.3     
   8 O8             3.4346    -0.0700    -1.2848 O.3     
   9 C9             4.5028    -0.9066    -1.2067 C.ar    
  10 C10            5.0546    -1.2153     0.0280 C.ar    
  11 C11            5.0397    -1.4578    -2.3613 C.ar    
  12 C12            6.1251    -2.3081    -2.2792 C.ar    
  13 C13            6.6766    -2.6102    -1.0476 C.ar    
  14 C14            6.1403    -2.0665     0.1047 C.ar    
  15 C15            4.4389    -1.1294    -3.7037 C.3     
  16 C16            5.0297     0.1584    -4.2170 C.2     
  17 N17            4.6228     0.6312    -5.4111 N.am    
  18 N18            5.9148     0.7815    -3.4874 N.2     
  19 C19            6.4730     1.9294    -3.8924 C.2     
  20 C20            6.0981     2.4764    -5.1308 C.2     
  21 C21            5.1305     1.7817    -5.9011 C.2     
  22 N22            7.4016     2.5652    -3.1054 N.pl3   
  23 C23            7.3969     4.0288    -2.9760 C.3     
  24 C24            8.4148     1.7944    -2.3720 C.3     
  25 C25            8.3578     2.1873    -0.8924 C.3     
  26 C26            8.5091     3.7049    -0.7656 C.3     
  27 C27            7.3534     4.3920    -1.4884 C.3     
  28 O28            4.7690     2.2117    -6.9828 O.2     
  29 O29            8.4887     4.0716     0.6154 O.3     
  30 C30            6.6719     3.7020    -5.5993 C.1     
  31 N31            7.1270     4.6742    -5.9710 N.1     
  32 H32           -1.2425     3.6515    -1.0593 H       
  33 H33           -1.6010     1.2493    -0.6540 H       
  34 H34            0.3194    -0.2216    -0.1939 H       
  35 H35            2.9559     3.1132    -0.5372 H       
  36 H36            1.0355     4.5842    -0.9966 H       
  37 H37            3.7139     1.0261     0.4441 H       
  38 H38            2.6135    -0.3656     0.5879 H       
  39 H39            4.6361    -0.7905     0.9284 H       
  40 H40            6.5431    -2.7377    -3.1776 H       
  41 H41            7.5253    -3.2753    -0.9855 H       
  42 H42            6.5728    -2.3040     1.0654 H       
  43 H43            4.6564    -1.9342    -4.4059 H       
  44 H44            3.3594    -1.0185    -3.6013 H       
  45 H45            3.9603     0.1409    -5.9225 H       
  46 H46            8.3014     4.4383    -3.4258 H       
  47 H47            6.5197     4.4372    -3.4777 H       
  48 H48            8.2090     0.7290    -2.4753 H       
  49 H49            9.4040     2.0180    -2.7716 H       
  50 H50            7.4004     1.8807    -0.4712 H       
  51 H51            9.1673     1.6947    -0.3537 H       
  52 H52            9.4556     4.0138    -1.2092 H       
  53 H53            7.4469     5.4725    -1.3791 H       
  54 H54            6.4078     4.0628    -1.0577 H       
  55 H55            8.5802     5.0216     0.7715 H       
@<TRIPOS>BOND
   1    1    2 ar
   2    1    6 ar
   3    1   32 1
   4    2    3 ar
   5    2   33 1
   6    3    4 ar
   7    3   34 1
   8    4    5 ar
   9    4    7 1
  10    5    6 ar
  11    5   35 1
  12    6   36 1
  13    7    8 1
  14    7   37 1
  15    7   38 1
  16    8    9 1
  17    9   10 ar
  18    9   11 ar
  19   10   14 ar
  20   10   39 1
  21   11   12 ar
  22   11   15 1
  23   12   13 ar
  24   12   40 1
  25   13   14 ar
  26   13   41 1
  27   14   42 1
  28   15   16 1
  29   15   43 1
  30   15   44 1
  31   16   17 1
  32   16   18 2
  33   17   21 am
  34   17   45 1
  35   18   19 1
  36   19   20 2
  37   19   22 1
  38   20   21 1
  39   20   30 1
  40   21   28 2
  41   22   23 1
  42   22   24 1
  43   23   27 1
  44   23   46 1
  45   23   47 1
  46   24   25 1
  47   24   48 1
  48   24   49 1
  49   25   26 1
  50   25   50 1
  51   25   51 1
  52   26   27 1
  53   26   29 1
  54   26   52 1
  55   27   53 1
  56   27   54 1
  57   29   55 1
  58   30   31 3

#	End of record

