#	Name: ASD01915565
#	Creating user name:	WinNT
#	Creation time:	15. 06. 2019 20:05

#	Modifying user name:	WinNT
#	Modification time:	15. 06. 2019 20:05

#	Program:	/corina/corina34_cracker 3.40 0067  02.08.2006

@<TRIPOS>MOLECULE
ASD01915565
  47   51    0    0    0
SMALL
NO_CHARGES


@<TRIPOS>ATOM
   1 C1            -0.0043     1.4631     0.2176 C.2     
   2 N2             0.0616     0.1099    -0.0288 N.pl3   
   3 C3            -1.1510    -0.6743    -0.2923 C.3     
   4 C4            -2.3298    -0.0462     0.4494 C.3     
   5 N5            -2.4043     1.3988     0.2637 N.am    
   6 C6            -1.2917     2.1721     0.2677 C.2     
   7 C7             1.2784     1.9004     0.3937 C.2     
   8 C8             2.0745     0.7558     0.2522 C.2     
   9 N9             1.2813    -0.2615     0.0091 N.2     
  10 C10            3.5768     0.7024     0.3597 C.3     
  11 O11            4.0817     2.0112     0.6317 O.3     
  12 C12            5.4287     2.1386     0.7593 C.ar    
  13 O13           -1.3542     3.3861     0.3109 O.2     
  14 C14            5.9872     3.3807     1.0237 C.ar    
  15 C15            6.2472     1.0258     0.6310 C.ar    
  16 C16            7.6161     1.1580     0.7610 C.ar    
  17 C17            8.1707     2.3980     1.0189 C.ar    
  18 C18            7.3567     3.5076     1.1528 C.ar    
  19 C19           -3.6482     1.9975     0.0773 C.ar    
  20 C20           -4.8069     1.2635     0.3044 C.ar    
  21 C21           -6.0361     1.8705     0.1155 C.ar    
  22 C22           -6.0639     3.1960    -0.2956 C.ar    
  23 C23           -4.8735     3.8650    -0.5025 C.ar    
  24 N24           -3.7163     3.2620    -0.3091 N.ar    
  25 C25           -4.8968     5.3040    -0.9493 C.3     
  26 C26           -5.0251     5.5759    -2.4495 C.3     
  27 C27           -6.2094     5.8456    -1.5191 C.3     
  28 H28           -1.3557    -0.6791    -1.3629 H       
  29 H29           -1.0056    -1.6970     0.0555 H       
  30 H30           -3.2540    -0.4961     0.0868 H       
  31 H31           -2.2304    -0.2599     1.5136 H       
  32 H32            1.6071     2.9088     0.5974 H       
  33 H33            3.8594     0.0285     1.1685 H       
  34 H34            3.9955     0.3392    -0.5789 H       
  35 H35            5.3519     4.2478     1.1280 H       
  36 H36            5.8144     0.0569     0.4300 H       
  37 H37            8.2536     0.2919     0.6616 H       
  38 H38            9.2412     2.4993     1.1202 H       
  39 H39            7.7923     4.4752     1.3539 H       
  40 H40           -4.7484     0.2334     0.6235 H       
  41 H41           -6.9530     1.3252     0.2838 H       
  42 H42           -7.0067     3.6989    -0.4524 H       
  43 H43           -4.2814     5.9878    -0.3647 H       
  44 H44           -4.4944     6.4388    -2.8517 H       
  45 H45           -5.0926     4.7139    -3.1132 H       
  46 H46           -7.0561     5.1610    -1.5708 H       
  47 H47           -6.4579     6.8859    -1.3093 H       
@<TRIPOS>BOND
   1    1    2 1
   2    1    7 2
   3    1    6 1
   4    2    3 1
   5    2    9 1
   6    3    4 1
   7    3   28 1
   8    3   29 1
   9    4    5 1
  10    4   30 1
  11    4   31 1
  12    5    6 am
  13    5   19 1
  14    6   13 2
  15    7    8 1
  16    7   32 1
  17    8    9 2
  18    8   10 1
  19   10   11 1
  20   10   33 1
  21   10   34 1
  22   11   12 1
  23   12   14 ar
  24   12   15 ar
  25   14   18 ar
  26   14   35 1
  27   15   16 ar
  28   15   36 1
  29   16   17 ar
  30   16   37 1
  31   17   18 ar
  32   17   38 1
  33   18   39 1
  34   19   20 ar
  35   19   24 ar
  36   20   21 ar
  37   20   40 1
  38   21   22 ar
  39   21   41 1
  40   22   23 ar
  41   22   42 1
  42   23   24 ar
  43   23   25 1
  44   25   26 1
  45   25   27 1
  46   25   43 1
  47   26   27 1
  48   26   44 1
  49   26   45 1
  50   27   46 1
  51   27   47 1

#	End of record

