#	Name: ASD03110035
#	Creating user name:	WinNT
#	Creation time:	15. 06. 2019 20:33

#	Modifying user name:	WinNT
#	Modification time:	15. 06. 2019 20:33

#	Program:	/corina/corina34_cracker 3.40 0067  02.08.2006

@<TRIPOS>MOLECULE
ASD03110035
  57   58    0    0    0
SMALL
NO_CHARGES


@<TRIPOS>ATOM
   1 C1             1.9771    -0.1009     1.5754 C.3     
   2 C2             1.0201    -1.1778     1.0551 C.3     
   3 C3             0.5620    -2.0485     2.2292 C.3     
   4 C4            -0.0875    -1.1582     3.2917 C.3     
   5 O5             0.8454    -0.1597     3.7098 O.3     
   6 C6             1.2729     0.7143     2.6632 C.3     
   7 O7            -0.1152    -0.5563     0.4495 O.3     
   8 C8             2.2422     1.7534     3.2301 C.3     
   9 O9             1.5463     2.6073     4.1404 O.3     
  10 O10           -0.3875    -3.0115     1.7676 O.3     
  11 O11           -1.2459    -0.5275     2.7417 O.3     
  12 C12           -2.1238     0.0312     3.7211 C.3     
  13 C13           -2.8125     1.2686     3.1420 C.3     
  14 C14           -3.1799    -1.0053     4.1099 C.3     
  15 C15           -1.7698     2.3574     2.8809 C.3     
  16 C16           -2.4732     3.6406     2.4344 C.3     
  17 C17           -1.4267     4.6914     2.0582 C.3     
  18 C18           -2.4933    -2.2466     4.6906 C.3     
  19 O19           -4.0493    -0.4553     5.1066 O.3     
  20 C20           -4.9747    -1.2941     5.6211 C.2     
  21 C21           -4.7184    -2.6848     5.6741 C.2     
  22 C22           -3.5465    -3.1786     5.2363 C.2     
  23 O23           -6.0289    -0.8537     6.0394 O.2     
  24 O24           -3.3134    -4.5053     5.2849 O.3     
  25 C25           -4.3721    -5.3414     5.8219 C.3     
  26 O26            3.1423    -0.7214     2.1226 O.3     
  27 C27            4.1933    -0.9216     1.1754 C.3     
  28 H28            2.2657     0.5568     0.7554 H       
  29 H29            1.5335    -1.7976     0.3200 H       
  30 H30            1.4220    -2.5620     2.6591 H       
  31 H31           -0.3770    -1.7667     4.1485 H       
  32 H32            0.4071     1.2198     2.2354 H       
  33 H33           -0.7642    -1.1806     0.0973 H       
  34 H34            3.0524     1.2466     3.7545 H       
  35 H35            2.6535     2.3493     2.4153 H       
  36 H36            2.1149     3.2428     4.5965 H       
  37 H37           -0.7210    -3.5983     2.4601 H       
  38 H38           -1.5503     0.3142     4.6038 H       
  39 H39           -3.3054     1.0055     2.2061 H       
  40 H40           -3.5532     1.6376     3.8515 H       
  41 H41           -3.7589    -1.2854     3.2299 H       
  42 H42           -1.2086     2.5499     3.7953 H       
  43 H43           -1.0870     2.0263     2.0984 H       
  44 H44           -3.1021     3.4283     1.5698 H       
  45 H45           -3.0910     4.0186     3.2491 H       
  46 H46           -0.7439     4.8400     2.8947 H       
  47 H47           -0.8661     4.3505     1.1878 H       
  48 H48           -1.9245     5.6324     1.8240 H       
  49 H49           -1.9296    -2.7522     3.9065 H       
  50 H50           -1.8185    -1.9486     5.4930 H       
  51 H51           -5.4686    -3.3539     6.0690 H       
  52 H52           -4.5848    -5.0437     6.8486 H       
  53 H53           -5.2705    -5.2239     5.2160 H       
  54 H54           -4.0557    -6.3843     5.8041 H       
  55 H55            3.8376    -1.5613     0.3677 H       
  56 H56            4.5029     0.0406     0.7674 H       
  57 H57            5.0412    -1.3969     1.6686 H       
@<TRIPOS>BOND
   1    1    2 1
   2    1   26 1
   3    1    6 1
   4    1   28 1
   5    2    3 1
   6    2    7 1
   7    2   29 1
   8    3   10 1
   9    3    4 1
  10    3   30 1
  11    4    5 1
  12    4   11 1
  13    4   31 1
  14    5    6 1
  15    6    8 1
  16    6   32 1
  17    7   33 1
  18    8    9 1
  19    8   34 1
  20    8   35 1
  21    9   36 1
  22   10   37 1
  23   11   12 1
  24   12   13 1
  25   12   14 1
  26   12   38 1
  27   13   15 1
  28   13   39 1
  29   13   40 1
  30   14   18 1
  31   14   19 1
  32   14   41 1
  33   15   16 1
  34   15   42 1
  35   15   43 1
  36   16   17 1
  37   16   44 1
  38   16   45 1
  39   17   46 1
  40   17   47 1
  41   17   48 1
  42   18   22 1
  43   18   49 1
  44   18   50 1
  45   19   20 1
  46   20   21 1
  47   20   23 2
  48   21   22 2
  49   21   51 1
  50   22   24 1
  51   24   25 1
  52   25   52 1
  53   25   53 1
  54   25   54 1
  55   26   27 1
  56   27   55 1
  57   27   56 1
  58   27   57 1

#	End of record

