#	Name: ASD01410276
#	Creating user name:	WinNT
#	Creation time:	15. 06. 2019 19:17

#	Modifying user name:	WinNT
#	Modification time:	15. 06. 2019 19:17

#	Program:	/corina/corina34_cracker 3.40 0067  02.08.2006

@<TRIPOS>MOLECULE
ASD01410276
  69   75    0    0    0
SMALL
NO_CHARGES


@<TRIPOS>ATOM
   1 C1             1.1660     1.8060     0.4194 C.2     
   2 C2             2.0305     0.7996     0.6258 C.2     
   3 C3             1.4130    -0.3930     0.0306 C.2     
   4 C4             0.2221     0.0252    -0.4804 C.2     
   5 O5             0.0950     1.3361    -0.2383 O.3     
   6 N6             1.2698    -2.8540    -0.1984 N.2     
   7 C7             1.9686    -1.7615    -0.0063 C.2     
   8 N8             3.2911    -2.0792     0.1545 N.pl3   
   9 C9             3.3987    -3.4508     0.0532 C.ar    
  10 C10            2.0949    -3.9309    -0.1727 C.ar    
  11 C11            4.4659    -4.3382     0.1293 C.ar    
  12 C12            4.2550    -5.6790    -0.0150 C.ar    
  13 C13            2.9641    -6.1747    -0.2409 C.ar    
  14 C14            1.8832    -5.3020    -0.3193 C.ar    
  15 C15            6.6286    -0.3740    -0.4107 C.3     
  16 C16            7.2057    -0.6020     0.9878 C.3     
  17 C17            6.1110    -0.3812     2.0335 C.3     
  18 C18            4.9653    -1.3650     1.7880 C.3     
  19 C19            4.3881    -1.1371     0.3895 C.3     
  20 C20            5.4829    -1.3579    -0.6562 C.3     
  21 C21            2.7501    -7.6276    -0.3957 C.2     
  22 N22            3.7956    -8.4747    -0.3197 N.am    
  23 O23            1.6307    -8.0597    -0.5918 O.2     
  24 C24            3.5833    -9.9161    -0.4733 C.3     
  25 C25            4.8753   -10.5725    -0.9639 C.3     
  26 C26            4.8801   -10.6586    -3.5078 C.2     
  27 N27            5.3423    -9.9097    -4.5552 N.pl3   
  28 C28            5.9899    -8.7889    -4.0797 C.ar    
  29 C29            5.9295    -8.8403    -2.6758 C.ar    
  30 C30            5.2017   -10.0681    -2.3459 C.2     
  31 C31            6.6305    -7.7211    -4.6996 C.ar    
  32 C32            7.1996    -6.7244    -3.9391 C.ar    
  33 C33            7.1419    -6.7726    -2.5485 C.ar    
  34 C34            6.5096    -7.8232    -1.9144 C.ar    
  35 O35            7.7099    -5.7803    -1.8123 O.3     
  36 C36            2.6936   -12.1963     2.2194 C.2     
  37 N37            3.0305   -11.8057     1.0368 N.2     
  38 C38            3.1907   -10.5103     0.8548 C.2     
  39 C39            2.9771    -9.7670     1.9446 C.2     
  40 S40            2.5442   -10.8513     3.2643 S.3     
  41 H41            1.3077     2.8287     0.7362 H       
  42 H42            2.9854     0.8555     1.1272 H       
  43 H43           -0.4974    -0.5950    -0.9942 H       
  44 H44            5.4647    -3.9658     0.3028 H       
  45 H45            5.0890    -6.3625     0.0450 H       
  46 H46            0.8878    -5.6832    -0.4933 H       
  47 H47            6.2537     0.6466    -0.4871 H       
  48 H48            7.4085    -0.5313    -1.1557 H       
  49 H49            7.5806    -1.6226     1.0642 H       
  50 H50            8.0220     0.0990     1.1627 H       
  51 H51            6.5221    -0.5436     3.0299 H       
  52 H52            5.7360     0.6395     1.9571 H       
  53 H53            5.3402    -2.3857     1.8645 H       
  54 H54            4.1853    -1.2077     2.5331 H       
  55 H55            4.0132    -0.1165     0.3131 H       
  56 H56            5.0717    -1.1955    -1.6525 H       
  57 H57            5.8578    -2.3785    -0.5798 H       
  58 H58            4.6887    -8.1300    -0.1632 H       
  59 H59            2.7887   -10.0910    -1.1987 H       
  60 H60            5.6902   -10.3232    -0.2843 H       
  61 H61            4.7448   -11.6543    -0.9933 H       
  62 H62            4.3335   -11.5853    -3.6019 H       
  63 H63            5.2310   -10.1336    -5.4925 H       
  64 H64            6.6818    -7.6740    -5.7774 H       
  65 H65            7.6958    -5.8976    -4.4255 H       
  66 H66            6.4654    -7.8594    -0.8359 H       
  67 H67            7.1129    -5.0455    -1.6155 H       
  68 H68            2.5256   -13.2238     2.5066 H       
  69 H69            3.0555    -8.6916     2.0056 H       
@<TRIPOS>BOND
   1    1    2 2
   2    1    5 1
   3    1   41 1
   4    2    3 1
   5    2   42 1
   6    3    4 2
   7    3    7 1
   8    4    5 1
   9    4   43 1
  10    6    7 2
  11    6   10 1
  12    7    8 1
  13    8    9 1
  14    8   19 1
  15    9   10 ar
  16    9   11 ar
  17   10   14 ar
  18   11   12 ar
  19   11   44 1
  20   12   13 ar
  21   12   45 1
  22   13   14 ar
  23   13   21 1
  24   14   46 1
  25   15   16 1
  26   15   20 1
  27   15   47 1
  28   15   48 1
  29   16   17 1
  30   16   49 1
  31   16   50 1
  32   17   18 1
  33   17   51 1
  34   17   52 1
  35   18   19 1
  36   18   53 1
  37   18   54 1
  38   19   20 1
  39   19   55 1
  40   20   56 1
  41   20   57 1
  42   21   22 am
  43   21   23 2
  44   22   24 1
  45   22   58 1
  46   24   25 1
  47   24   38 1
  48   24   59 1
  49   25   30 1
  50   25   60 1
  51   25   61 1
  52   26   27 1
  53   26   30 2
  54   26   62 1
  55   27   28 1
  56   27   63 1
  57   28   29 ar
  58   28   31 ar
  59   29   30 1
  60   29   34 ar
  61   31   32 ar
  62   31   64 1
  63   32   33 ar
  64   32   65 1
  65   33   34 ar
  66   33   35 1
  67   34   66 1
  68   35   67 1
  69   36   37 2
  70   36   40 1
  71   36   68 1
  72   37   38 1
  73   38   39 2
  74   39   40 1
  75   39   69 1

#	End of record

