#	Name: ASD01920004
#	Creating user name:	WinNT
#	Creation time:	15. 06. 2019 20:11

#	Modifying user name:	WinNT
#	Modification time:	15. 06. 2019 20:11

#	Program:	/corina/corina34_cracker 3.40 0067  02.08.2006

@<TRIPOS>MOLECULE
ASD01920004
  37   40    0    0    0
SMALL
NO_CHARGES


@<TRIPOS>ATOM
   1 N1            -0.0174     1.3623     0.1049 N.am    
   2 C2             0.0022    -0.0038    -0.0001 C.2     
   3 C3            -1.1513    -0.7274    -0.0880 C.2     
   4 C4            -2.3852    -0.0662    -0.0707 C.2     
   5 C5            -2.3960     1.3362     0.0378 C.2     
   6 C6            -1.1845     2.0415     0.1306 C.2     
   7 O7            -3.6722    -0.4338    -0.1342 O.3     
   8 N8            -4.4364     0.5026    -0.0824 N.2     
   9 C9            -3.8262     1.6590     0.0239 C.2     
  10 C10           -4.4485     3.0026     0.1112 C.ar    
  11 O11           -1.1864     3.2569     0.2253 O.2     
  12 C12            1.2468     2.0968     0.1967 C.3     
  13 C13            1.3008    -0.7088    -0.0190 C.ar    
  14 C14           -5.6189     3.2785    -0.5934 C.ar    
  15 C15           -6.1935     4.5304    -0.5085 C.ar    
  16 C16           -5.6100     5.5105     0.2741 C.ar    
  17 C17           -4.4481     5.2424     0.9753 C.ar    
  18 C18           -3.8682     3.9921     0.9027 C.ar    
  19 C19            1.5188    -1.7997     0.8245 C.ar    
  20 C20            2.7332    -2.4536     0.8014 C.ar    
  21 C21            3.7341    -2.0304    -0.0552 C.ar    
  22 C22            3.5249    -0.9497    -0.8934 C.ar    
  23 C23            2.3131    -0.2904    -0.8846 C.ar    
  24 H24           -1.1126    -1.8035    -0.1708 H       
  25 H25            1.6348     2.2790    -0.8055 H       
  26 H26            1.0781     3.0490     0.6996 H       
  27 H27            1.9682     1.5089     0.7643 H       
  28 H28           -6.0751     2.5142    -1.2050 H       
  29 H29           -7.1002     4.7454    -1.0544 H       
  30 H30           -6.0631     6.4888     0.3376 H       
  31 H31           -3.9967     6.0114     1.5845 H       
  32 H32           -2.9613     3.7838     1.4509 H       
  33 H33            0.7385    -2.1308     1.4938 H       
  34 H34            2.9033    -3.2974     1.4536 H       
  35 H35            4.6831    -2.5458    -0.0693 H       
  36 H36            4.3106    -0.6241    -1.5591 H       
  37 H37            2.1511     0.5531    -1.5394 H       
@<TRIPOS>BOND
   1    1    2 1
   2    1   12 1
   3    1    6 am
   4    2    3 2
   5    2   13 1
   6    3    4 1
   7    3   24 1
   8    4    5 2
   9    4    7 1
  10    5    6 1
  11    5    9 1
  12    6   11 2
  13    7    8 1
  14    8    9 2
  15    9   10 1
  16   10   14 ar
  17   10   18 ar
  18   12   25 1
  19   12   26 1
  20   12   27 1
  21   13   19 ar
  22   13   23 ar
  23   14   15 ar
  24   14   28 1
  25   15   16 ar
  26   15   29 1
  27   16   17 ar
  28   16   30 1
  29   17   18 ar
  30   17   31 1
  31   18   32 1
  32   19   20 ar
  33   19   33 1
  34   20   21 ar
  35   20   34 1
  36   21   22 ar
  37   21   35 1
  38   22   23 ar
  39   22   36 1
  40   23   37 1

#	End of record

