#	Name: ASD00172052
#	Creating user name:	WinNT
#	Creation time:	15. 06. 2019 18:33

#	Modifying user name:	WinNT
#	Modification time:	15. 06. 2019 18:33

#	Program:	/corina/corina34_cracker 3.40 0067  02.08.2006

@<TRIPOS>MOLECULE
ASD00172052
  81   85    0    0    0
SMALL
NO_CHARGES


@<TRIPOS>ATOM
   1 C1            -0.0173     4.4922    -2.0432 C.ar    
   2 C2             0.1251     3.2188    -2.5642 C.ar    
   3 C3            -0.9897     2.4279    -2.7700 C.ar    
   4 C4            -2.2467     2.9094    -2.4552 C.ar    
   5 C5            -2.3894     4.1820    -1.9344 C.ar    
   6 C6            -1.2748     4.9717    -1.7235 C.ar    
   7 Br7            1.5075     5.5745    -1.7609 Br      
   8 C8            -3.4618     2.0469    -2.6801 C.3     
   9 C9            -3.7426     1.2231    -1.4218 C.3     
  10 C10           -2.5760     0.3056    -1.1138 C.2     
  11 N11           -3.0693    -0.9467    -1.1825 N.am    
  12 C12           -4.3719    -0.9478    -1.4880 C.2     
  13 N13           -4.8629     0.2942    -1.6497 N.am    
  14 O14           -5.0371    -1.9580    -1.6066 O.2     
  15 C15           -6.2428     0.6529    -1.9864 C.3     
  16 C16           -4.0337     2.1413    -0.2331 C.3     
  17 O17           -1.4361     0.6306    -0.8592 O.2     
  18 C18           -2.3110    -2.1051    -0.9620 C.ar    
  19 C19           -2.9320    -3.3461    -0.9266 C.ar    
  20 C20           -2.1822    -4.4870    -0.7089 C.ar    
  21 C21           -0.8139    -4.3926    -0.5260 C.ar    
  22 C22           -0.1927    -3.1566    -0.5609 C.ar    
  23 C23           -0.9374    -2.0135    -0.7844 C.ar    
  24 Cl24           1.5242    -3.0420    -0.3310 Cl      
  25 Cl25          -2.9581    -6.0394    -0.6645 Cl      
  26 C26           -7.0521     0.8300    -0.7001 C.3     
  27 C27           -8.4932     1.2046    -1.0517 C.3     
  28 C28           -9.3025     1.3817     0.2346 C.3     
  29 N29          -10.6824     1.7405    -0.1020 N.am    
  30 C30          -11.5832     1.9477     0.8788 C.2     
  31 C31          -13.0027     2.3168     0.5325 C.3     
  32 O32          -11.2515     1.8373     2.0401 O.2     
  33 C33          -13.8120     2.4939     1.8188 C.3     
  34 C34          -15.2314     2.8629     1.4725 C.ar    
  35 C35          -16.1761     1.8685     1.2881 C.ar    
  36 C36          -17.4771     2.1990     0.9710 C.ar    
  37 C37          -17.8401     3.5411     0.8360 C.ar    
  38 C38          -16.8814     4.5395     1.0235 C.ar    
  39 C39          -15.5854     4.1947     1.3458 C.ar    
  40 C40          -19.2317     3.9028     0.4960 C.2     
  41 O41          -19.6554     5.0094     0.7667 O.2     
  42 C42          -20.1082     2.9195    -0.1731 C.ar    
  43 C43          -21.4966     3.0338    -0.0716 C.ar    
  44 C44          -22.3088     2.1122    -0.6987 C.ar    
  45 C45          -21.7512     1.0761    -1.4273 C.ar    
  46 C46          -20.3764     0.9566    -1.5317 C.ar    
  47 C47          -19.5523     1.8745    -0.9149 C.ar    
  48 H48            1.1070     2.8427    -2.8105 H       
  49 H49           -0.8787     1.4338    -3.1771 H       
  50 H50           -3.3717     4.5578    -1.6886 H       
  51 H51           -1.3864     5.9659    -1.3166 H       
  52 H52           -4.3215     2.6803    -2.8990 H       
  53 H53           -3.2811     1.3766    -3.5204 H       
  54 H54           -6.2485     1.5856    -2.5505 H       
  55 H55           -6.6874    -0.1390    -2.5892 H       
  56 H56           -4.9128     2.7483    -0.4495 H       
  57 H57           -4.2187     1.5377     0.6555 H       
  58 H58           -3.1770     2.7921    -0.0583 H       
  59 H59           -4.0000    -3.4203    -1.0686 H       
  60 H60           -0.2299    -5.2849    -0.3554 H       
  61 H61           -0.4521    -1.0491    -0.8119 H       
  62 H62           -7.0464    -0.1027    -0.1360 H       
  63 H63           -6.6075     1.6219    -0.0973 H       
  64 H64           -8.4989     2.1373    -1.6158 H       
  65 H65           -8.9377     0.4127    -1.6545 H       
  66 H66           -9.2968     0.4491     0.7988 H       
  67 H67           -8.8579     2.1736     0.8374 H       
  68 H68          -10.9477     1.8288    -1.0308 H       
  69 H69          -13.0083     3.2494    -0.0317 H       
  70 H70          -13.4472     1.5248    -0.0703 H       
  71 H71          -13.8063     1.5612     2.3829 H       
  72 H72          -13.3674     3.2858     2.4216 H       
  73 H73          -15.8939     0.8313     1.3924 H       
  74 H74          -18.2132     1.4220     0.8270 H       
  75 H75          -17.1553     5.5791     0.9203 H       
  76 H76          -14.8431     4.9656     1.4911 H       
  77 H77          -21.9331     3.8416     0.4969 H       
  78 H78          -23.3825     2.1991    -0.6208 H       
  79 H79          -22.3919     0.3573    -1.9164 H       
  80 H80          -19.9480     0.1454    -2.1016 H       
  81 H81          -18.4796     1.7803    -0.9975 H       
@<TRIPOS>BOND
   1    1    2 ar
   2    1    7 1
   3    1    6 ar
   4    2    3 ar
   5    2   48 1
   6    3    4 ar
   7    3   49 1
   8    4    5 ar
   9    4    8 1
  10    5    6 ar
  11    5   50 1
  12    6   51 1
  13    8    9 1
  14    8   52 1
  15    8   53 1
  16    9   10 1
  17    9   16 1
  18    9   13 1
  19   10   11 am
  20   10   17 2
  21   11   12 am
  22   11   18 1
  23   12   13 am
  24   12   14 2
  25   13   15 1
  26   15   26 1
  27   15   54 1
  28   15   55 1
  29   16   56 1
  30   16   57 1
  31   16   58 1
  32   18   19 ar
  33   18   23 ar
  34   19   20 ar
  35   19   59 1
  36   20   21 ar
  37   20   25 1
  38   21   22 ar
  39   21   60 1
  40   22   23 ar
  41   22   24 1
  42   23   61 1
  43   26   27 1
  44   26   62 1
  45   26   63 1
  46   27   28 1
  47   27   64 1
  48   27   65 1
  49   28   29 1
  50   28   66 1
  51   28   67 1
  52   29   30 am
  53   29   68 1
  54   30   31 1
  55   30   32 2
  56   31   33 1
  57   31   69 1
  58   31   70 1
  59   33   34 1
  60   33   71 1
  61   33   72 1
  62   34   35 ar
  63   34   39 ar
  64   35   36 ar
  65   35   73 1
  66   36   37 ar
  67   36   74 1
  68   37   38 ar
  69   37   40 1
  70   38   39 ar
  71   38   75 1
  72   39   76 1
  73   40   41 2
  74   40   42 1
  75   42   43 ar
  76   42   47 ar
  77   43   44 ar
  78   43   77 1
  79   44   45 ar
  80   44   78 1
  81   45   46 ar
  82   45   79 1
  83   46   47 ar
  84   46   80 1
  85   47   81 1

#	End of record

