#	Name: ASD01815797
#	Creating user name:	WinNT
#	Creation time:	15. 06. 2019 19:34

#	Modifying user name:	WinNT
#	Modification time:	15. 06. 2019 19:34

#	Program:	/corina/corina34_cracker 3.40 0067  02.08.2006

@<TRIPOS>MOLECULE
ASD01815797
  53   57    0    0    0
SMALL
NO_CHARGES


@<TRIPOS>ATOM
   1 C1            -0.1485     1.2148     0.4650 C.ar    
   2 C2            -0.0677    -0.1739     0.4444 C.ar    
   3 C3             1.1303    -0.8047     0.2868 C.ar    
   4 C4             2.3027    -0.0471     0.1429 C.ar    
   5 C5             2.2166     1.3663     0.1644 C.ar    
   6 C6             0.9715     1.9819     0.3278 C.ar    
   7 C7             3.5566    -0.6721    -0.0221 C.ar    
   8 C8             4.6896     0.0568    -0.1617 C.ar    
   9 C9             4.6595     1.4599    -0.1475 C.ar    
  10 C10            3.4419     2.1459     0.0139 C.ar    
  11 C11            5.8814     2.2603    -0.2990 C.2     
  12 N12            5.7519     3.6071    -0.2733 N.am    
  13 C13            4.5322     4.1785    -0.1125 C.2     
  14 N14            3.4369     3.4894     0.0231 N.2     
  15 C15            6.9380     4.4544    -0.4199 C.3     
  16 C16            6.7801     5.3479    -1.6540 C.3     
  17 C17            7.0921     5.3392     0.8210 C.3     
  18 C18            8.2872     6.2758     0.6251 C.3     
  19 O19            8.0908     7.0558    -0.5560 O.3     
  20 C20            7.9872     6.2841    -1.7543 C.3     
  21 O21            7.3127     4.5174     1.9691 O.3     
  22 O22            6.9695     1.7323    -0.4418 O.2     
  23 C23            3.6368    -2.1768    -0.0430 C.3     
  24 C24            3.3833    -2.6740    -1.4428 C.ar    
  25 C25            3.4439    -4.0278    -1.7370 C.ar    
  26 C26            3.2053    -4.4475    -3.0317 C.ar    
  27 N27            2.9227    -3.5778    -3.9819 N.ar    
  28 C28            2.8564    -2.2822    -3.7391 C.ar    
  29 C29            3.0784    -1.7894    -2.4655 C.ar    
  30 Cl30           2.4806    -1.1849    -5.0307 Cl      
  31 C31            3.7666    -5.0290    -0.6578 C.3     
  32 H32           -1.1099     1.6915     0.5866 H       
  33 H33           -0.9675    -0.7608     0.5551 H       
  34 H34            1.1770    -1.8836     0.2732 H       
  35 H35            0.8968     3.0591     0.3450 H       
  36 H36            5.6344    -0.4515    -0.2860 H       
  37 H37            4.4672     5.2564    -0.0962 H       
  38 H38            7.8221     3.8274    -0.5344 H       
  39 H39            6.7252     4.7273    -2.5484 H       
  40 H40            5.8682     5.9379    -1.5624 H       
  41 H41            6.1865     5.9290     0.9627 H       
  42 H42            8.3758     6.9372     1.4870 H       
  43 H43            9.1984     5.6862     0.5240 H       
  44 H44            8.8945     5.6946    -1.8866 H       
  45 H45            7.8597     6.9516    -2.6066 H       
  46 H46            7.4194     5.0127     2.7927 H       
  47 H47            4.6287    -2.4922     0.2805 H       
  48 H48            2.8863    -2.5900     0.6309 H       
  49 H49            3.2511    -5.5003    -3.2684 H       
  50 H50            3.0225    -0.7283    -2.2722 H       
  51 H51            2.8544    -5.2932    -0.1228 H       
  52 H52            4.1954    -5.9238    -1.1089 H       
  53 H53            4.4833    -4.5941     0.0387 H       
@<TRIPOS>BOND
   1    1    2 ar
   2    1    6 ar
   3    1   32 1
   4    2    3 ar
   5    2   33 1
   6    3    4 ar
   7    3   34 1
   8    4    5 ar
   9    4    7 ar
  10    5    6 ar
  11    5   10 ar
  12    6   35 1
  13    7    8 ar
  14    7   23 1
  15    8    9 ar
  16    8   36 1
  17    9   10 ar
  18    9   11 1
  19   10   14 1
  20   11   12 am
  21   11   22 2
  22   12   13 1
  23   12   15 1
  24   13   14 2
  25   13   37 1
  26   15   16 1
  27   15   17 1
  28   15   38 1
  29   16   20 1
  30   16   39 1
  31   16   40 1
  32   17   18 1
  33   17   21 1
  34   17   41 1
  35   18   19 1
  36   18   42 1
  37   18   43 1
  38   19   20 1
  39   20   44 1
  40   20   45 1
  41   21   46 1
  42   23   24 1
  43   23   47 1
  44   23   48 1
  45   24   25 ar
  46   24   29 ar
  47   25   26 ar
  48   25   31 1
  49   26   27 ar
  50   26   49 1
  51   27   28 ar
  52   28   29 ar
  53   28   30 1
  54   29   50 1
  55   31   51 1
  56   31   52 1
  57   31   53 1

#	End of record

