#	Name: ASD01910079
#	Creating user name:	WinNT
#	Creation time:	15. 06. 2019 19:55

#	Modifying user name:	WinNT
#	Modification time:	15. 06. 2019 19:55

#	Program:	/corina/corina34_cracker 3.40 0067  02.08.2006

@<TRIPOS>MOLECULE
ASD01910079
  25   26    0    0    0
SMALL
NO_CHARGES


@<TRIPOS>ATOM
   1 C1            -0.0158     1.3144     0.0093 C.ar    
   2 N2             0.0021    -0.0041     0.0020 N.ar    
   3 C3             1.1439    -0.6688    -0.0124 C.ar    
   4 C4             2.3462     0.0505    -0.0200 C.ar    
   5 C5             2.2776     1.4498    -0.0119 C.ar    
   6 N6             1.0910     2.0310     0.0025 N.ar    
   7 C7             3.6087    -0.6251    -0.0352 C.1     
   8 C8             4.6438    -1.1789    -0.0477 C.1     
   9 C9             5.9063    -1.8545    -0.0629 C.ar    
  10 C10            7.0951    -1.1206    -0.0703 C.ar    
  11 C11            8.3076    -1.7782    -0.0849 C.ar    
  12 C12            8.3482    -3.1612    -0.0928 C.ar    
  13 C13            7.1747    -3.8949    -0.0860 C.ar    
  14 C14            5.9553    -3.2512    -0.0646 C.ar    
  15 C15            9.5910    -0.9885    -0.0929 C.3     
  16 F16           10.0005    -0.7508     1.2235 F       
  17 F17           10.5806    -1.7136    -0.7654 F       
  18 F18            9.3835     0.2321    -0.7443 F       
  19 H19           -0.9680     1.8239     0.0165 H       
  20 H20            1.1503    -1.7488    -0.0179 H       
  21 H21            3.1797     2.0437    -0.0169 H       
  22 H22            7.0649    -0.0410    -0.0649 H       
  23 H23            9.3004    -3.6707    -0.1047 H       
  24 H24            7.2141    -4.9741    -0.0929 H       
  25 H25            5.0404    -3.8250    -0.0590 H       
@<TRIPOS>BOND
   1    1    2 ar
   2    1    6 ar
   3    1   19 1
   4    2    3 ar
   5    3    4 ar
   6    3   20 1
   7    4    5 ar
   8    4    7 1
   9    5    6 ar
  10    5   21 1
  11    7    8 3
  12    8    9 1
  13    9   10 ar
  14    9   14 ar
  15   10   11 ar
  16   10   22 1
  17   11   12 ar
  18   11   15 1
  19   12   13 ar
  20   12   23 1
  21   13   14 ar
  22   13   24 1
  23   14   25 1
  24   15   16 1
  25   15   17 1
  26   15   18 1

#	End of record

