#	Name: ASD01870295
#	Creating user name:	WinNT
#	Creation time:	15. 06. 2019 19:38

#	Modifying user name:	WinNT
#	Modification time:	15. 06. 2019 19:38

#	Program:	/corina/corina34_cracker 3.40 0067  02.08.2006

@<TRIPOS>MOLECULE
ASD01870295
  33   35    0    0    0
SMALL
NO_CHARGES


@<TRIPOS>ATOM
   1 N1             0.1139     1.3808    -0.6731 N.2     
   2 C2             0.1565     0.0567    -0.8133 C.2     
   3 C3             1.3628    -0.5041    -0.6022 C.2     
   4 S4             2.5036     0.7763    -0.1976 S.3     
   5 C5             1.2214     1.9728    -0.3540 C.2     
   6 N6             1.3737     3.3397    -0.1651 N.am    
   7 C7             0.2244     4.2339    -0.3260 C.3     
   8 C8             2.5787     3.8440     0.1663 C.2     
   9 C9             2.7650     5.3055     0.2678 C.ar    
  10 O10            3.5125     3.0958     0.3818 O.2     
  11 C11            1.7248     6.1141     0.7314 C.ar    
  12 C12            3.9839     5.8835    -0.0941 C.ar    
  13 C13            4.1523     7.2481     0.0026 C.ar    
  14 C14            3.1145     8.0467     0.4585 C.ar    
  15 C15            1.9040     7.4776     0.8240 C.ar    
  16 F16            3.2850     9.3836     0.5517 F       
  17 C17           -1.0367    -0.7413    -1.1747 C.ar    
  18 C18           -2.2720    -0.1187    -1.3855 C.ar    
  19 C19           -3.3548    -0.9089    -1.7209 C.ar    
  20 N20           -3.1898    -2.2192    -1.8311 N.ar    
  21 C21           -2.0130    -2.7766    -1.6263 C.ar    
  22 N22           -0.9515    -2.0644    -1.3103 N.ar    
  23 H23            1.5913    -1.5575    -0.6688 H       
  24 H24           -0.2688     4.3685     0.6367 H       
  25 H25            0.5652     5.2002    -0.6979 H       
  26 H26           -0.4782     3.7984    -1.0365 H       
  27 H27            0.7816     5.6718     1.0164 H       
  28 H28            4.7932     5.2623    -0.4486 H       
  29 H29            5.0944     7.6961    -0.2769 H       
  30 H30            1.1004     8.1037     1.1824 H       
  31 H31           -2.3766     0.9518    -1.2882 H       
  32 H32           -4.3241    -0.4640    -1.8909 H       
  33 H33           -1.9156    -3.8477    -1.7249 H       
@<TRIPOS>BOND
   1    1    2 1
   2    1    5 2
   3    2    3 2
   4    2   17 1
   5    3    4 1
   6    3   23 1
   7    4    5 1
   8    5    6 1
   9    6    7 1
  10    6    8 am
  11    7   24 1
  12    7   25 1
  13    7   26 1
  14    8    9 1
  15    8   10 2
  16    9   12 ar
  17    9   11 ar
  18   11   15 ar
  19   11   27 1
  20   12   13 ar
  21   12   28 1
  22   13   14 ar
  23   13   29 1
  24   14   15 ar
  25   14   16 1
  26   15   30 1
  27   17   18 ar
  28   17   22 ar
  29   18   19 ar
  30   18   31 1
  31   19   20 ar
  32   19   32 1
  33   20   21 ar
  34   21   22 ar
  35   21   33 1

#	End of record

