#	Name: ASD08170307
#	Creating user name:	WinNT
#	Creation time:	15. 06. 2019 21:17

#	Modifying user name:	WinNT
#	Modification time:	15. 06. 2019 21:17

#	Program:	/corina/corina34_cracker 3.40 0067  02.08.2006

@<TRIPOS>MOLECULE
ASD08170307
  68   71    0    0    0
SMALL
NO_CHARGES


@<TRIPOS>ATOM
   1 C1            -0.0162     1.3436     0.0094 C.2     
   2 N2             0.0021    -0.0041     0.0020 N.am    
   3 C3             1.2158    -0.6830    -0.0132 C.2     
   4 S4             1.4076    -2.3853    -0.0242 S.3     
   5 C5             3.1580    -2.1679    -0.0404 C.2     
   6 C6             4.1900    -3.2660    -0.0570 C.3     
   7 C7             5.9649    -5.1406     2.7999 C.3     
   8 C8             6.9968    -6.2387     2.7833 C.2     
   9 S9             6.6713    -7.9723     2.7767 S.3     
  10 C10            8.3583    -8.2694     2.7582 C.2     
  11 N11            2.3916    -0.1314    -0.0272 N.2     
  12 N12            3.3971    -0.8949    -0.0360 N.2     
  13 N13            8.2821    -6.0790     2.7658 N.2     
  14 N14            8.9817    -7.1299     2.7585 N.2     
  15 O15            1.0258     1.9642     0.0028 O.2     
  16 C16           -1.3314     2.0792     0.0197 C.3     
  17 C17            4.5536    -3.6458     1.3798 C.3     
  18 C18            5.6013    -4.7607     1.3631 C.3     
  19 N19            8.9606    -9.5229     2.7455 N.am    
  20 C20           10.3044    -9.6248     2.7315 C.2     
  21 C21           10.9570   -10.9831     2.7177 C.3     
  22 O22           10.9885    -8.6233     2.7299 O.2     
  23 C23           -1.0722     3.5871     0.0266 C.3     
  24 C24           12.4780   -10.8180     2.7033 C.3     
  25 C25           -0.3979     3.9965    -1.2857 C.3     
  26 C26           13.1430   -12.1927     2.8151 C.3     
  27 C27           -2.4019     4.3342     0.1628 C.3     
  28 C28           -2.1425     5.8414     0.1079 C.3     
  29 N29           -1.4972     6.1823    -1.1664 N.3     
  30 C30           -0.1966     5.5135    -1.2985 C.3     
  31 C31           14.6625   -12.0266     2.7389 C.3     
  32 N32           15.0234   -11.3905     1.4656 N.3     
  33 C33           14.4348   -10.0496     1.3562 C.3     
  34 C34           12.9086   -10.1566     1.3911 C.3     
  35 H35           -0.8313    -0.5005     0.0073 H       
  36 H36            3.7851    -4.1373    -0.5717 H       
  37 H37            5.0822    -2.9183    -0.5777 H       
  38 H38            5.0727    -5.4882     3.3206 H       
  39 H39            6.3698    -4.2692     3.3146 H       
  40 H40           -1.9035     1.8130    -0.8691 H       
  41 H41           -1.8951     1.8033     0.9108 H       
  42 H42            4.9585    -2.7745     1.8946 H       
  43 H43            3.6614    -3.9935     1.9006 H       
  44 H44            6.4935    -4.4131     0.8423 H       
  45 H45            5.1964    -5.6320     0.8483 H       
  46 H46            8.4135   -10.3239     2.7467 H       
  47 H47           10.6602   -11.5378     3.6077 H       
  48 H48           10.6423   -11.5284     1.8279 H       
  49 H49           -0.4240     3.8414     0.8652 H       
  50 H50           12.7848   -10.1955     3.5438 H       
  51 H51            0.5692     3.5003    -1.3681 H       
  52 H52           -1.0293     3.7060    -2.1254 H       
  53 H53           12.8743   -12.6506     3.7670 H       
  54 H54           12.8049   -12.8281     1.9966 H       
  55 H55           -3.0648     4.0491    -0.6541 H       
  56 H56           -2.8666     4.0793     1.1152 H       
  57 H57           -3.0888     6.3760     0.1903 H       
  58 H58           -1.4906     6.1280     0.9332 H       
  59 H59           -2.0981     5.9617    -1.9463 H       
  60 H60            0.4462     5.8016    -0.4667 H       
  61 H61            0.2705     5.8099    -2.2377 H       
  62 H62           15.0015   -11.4024     3.5657 H       
  63 H63           15.1384   -13.0051     2.8039 H       
  64 H64           16.0251   -11.3562     1.3496 H       
  65 H65           14.7749    -9.4347     2.1895 H       
  66 H66           14.7454    -9.5921     0.4169 H       
  67 H67           12.5668   -10.7601     0.5502 H       
  68 H68           12.4723    -9.1599     1.3257 H       
@<TRIPOS>BOND
   1    1    2 am
   2    1   15 2
   3    1   16 1
   4    2    3 1
   5    2   35 1
   6    3    4 1
   7    3   11 2
   8    4    5 1
   9    5    6 1
  10    5   12 2
  11    6   17 1
  12    6   36 1
  13    6   37 1
  14    7    8 1
  15    7   18 1
  16    7   38 1
  17    7   39 1
  18    8    9 1
  19    8   13 2
  20    9   10 1
  21   10   19 1
  22   10   14 2
  23   11   12 1
  24   13   14 1
  25   16   23 1
  26   16   40 1
  27   16   41 1
  28   17   18 1
  29   17   42 1
  30   17   43 1
  31   18   44 1
  32   18   45 1
  33   19   20 am
  34   19   46 1
  35   20   21 1
  36   20   22 2
  37   21   24 1
  38   21   47 1
  39   21   48 1
  40   23   27 1
  41   23   25 1
  42   23   49 1
  43   24   26 1
  44   24   34 1
  45   24   50 1
  46   25   30 1
  47   25   51 1
  48   25   52 1
  49   26   31 1
  50   26   53 1
  51   26   54 1
  52   27   28 1
  53   27   55 1
  54   27   56 1
  55   28   29 1
  56   28   57 1
  57   28   58 1
  58   29   30 1
  59   29   59 1
  60   30   60 1
  61   30   61 1
  62   31   32 1
  63   31   62 1
  64   31   63 1
  65   32   33 1
  66   32   64 1
  67   33   34 1
  68   33   65 1
  69   33   66 1
  70   34   67 1
  71   34   68 1

#	End of record

