#	Name: ASD01940141
#	Creating user name:	WinNT
#	Creation time:	15. 06. 2019 20:11

#	Modifying user name:	WinNT
#	Modification time:	15. 06. 2019 20:11

#	Program:	/corina/corina34_cracker 3.40 0067  02.08.2006

@<TRIPOS>MOLECULE
ASD01940141
  40   41    0    0    0
SMALL
NO_CHARGES


@<TRIPOS>ATOM
   1 F1             1.9017     1.6012     2.2847 F       
   2 C2             1.0627     2.1522     1.3804 C.ar    
   3 C3             1.3873     2.1346     0.0304 C.ar    
   4 C4             0.5185     2.7045    -0.8989 C.ar    
   5 C5            -0.6656     3.2861    -0.4713 C.ar    
   6 C6            -0.9834     3.3011     0.8744 C.ar    
   7 C7            -0.1251     2.7303     1.7987 C.ar    
   8 N8             2.5854     1.5460    -0.3967 N.pl3   
   9 N9             0.8411     2.6901    -2.2625 N.am    
  10 C10            2.6325     0.1735    -0.6707 C.ar    
  11 C11            1.4768    -0.5912    -0.5867 C.ar    
  12 C12            1.5228    -1.9447    -0.8574 C.ar    
  13 C13            2.7254    -2.5417    -1.2133 C.ar    
  14 C14            3.8826    -1.7770    -1.2971 C.ar    
  15 C15            3.8355    -0.4222    -1.0325 C.ar    
  16 Cl16           5.2808     0.5336    -1.1371 Cl      
  17 F17           -0.4434     2.7423     3.1116 F       
  18 S18            0.4241     3.9710    -3.2257 S.o2    
  19 O19            0.9895     3.6568    -4.4909 O.2     
  20 O20           -0.9823     4.0900    -3.0609 O.2     
  21 C21            1.2743     5.3911    -2.4835 C.3     
  22 O22            0.9845     6.5684    -3.2398 O.3     
  23 C23           -0.3307     7.0859    -3.0284 C.3     
  24 S24            2.7837    -4.2686    -1.5580 S.3     
  25 C25            4.5305    -4.5455    -1.9611 C.3     
  26 H26           -1.3399     3.7281    -1.1898 H       
  27 H27           -1.9059     3.7553     1.2049 H       
  28 H28            3.3820     2.0893    -0.5025 H       
  29 H29            1.3088     1.9298    -2.6422 H       
  30 H30            0.5416    -0.1276    -0.3094 H       
  31 H31            0.6235    -2.5392    -0.7920 H       
  32 H32            4.8179    -2.2412    -1.5732 H       
  33 H33            0.9310     5.5246    -1.4576 H       
  34 H34            2.3497     5.2129    -2.4864 H       
  35 H35           -1.0669     6.3332    -3.3102 H       
  36 H36           -0.4561     7.3407    -1.9761 H       
  37 H37           -0.4722     7.9785    -3.6378 H       
  38 H38            4.8055    -3.9369    -2.8226 H       
  39 H39            5.1489    -4.2676    -1.1076 H       
  40 H40            4.6869    -5.5985    -2.1955 H       
@<TRIPOS>BOND
   1    1    2 1
   2    2    3 ar
   3    2    7 ar
   4    3    4 ar
   5    3    8 1
   6    4    5 ar
   7    4    9 1
   8    5    6 ar
   9    5   26 1
  10    6    7 ar
  11    6   27 1
  12    7   17 1
  13    8   10 1
  14    8   28 1
  15    9   18 am
  16    9   29 1
  17   10   11 ar
  18   10   15 ar
  19   11   12 ar
  20   11   30 1
  21   12   13 ar
  22   12   31 1
  23   13   14 ar
  24   13   24 1
  25   14   15 ar
  26   14   32 1
  27   15   16 1
  28   18   19 2
  29   18   20 2
  30   18   21 1
  31   21   22 1
  32   21   33 1
  33   21   34 1
  34   22   23 1
  35   23   35 1
  36   23   36 1
  37   23   37 1
  38   24   25 1
  39   25   38 1
  40   25   39 1
  41   25   40 1

#	End of record

