#	Name: ASD00170507
#	Creating user name:	WinNT
#	Creation time:	15. 06. 2019 18:32

#	Modifying user name:	WinNT
#	Modification time:	15. 06. 2019 18:32

#	Program:	/corina/corina34_cracker 3.40 0067  02.08.2006

@<TRIPOS>MOLECULE
ASD00170507
  50   53    0    0    0
SMALL
NO_CHARGES


@<TRIPOS>ATOM
   1 C1             0.5274     1.0996     1.0121 C.ar    
   2 C2             0.4865    -0.2824     0.9694 C.ar    
   3 C3            -0.7222    -0.9350     0.8228 C.ar    
   4 C4            -1.8976    -0.2027     0.7182 C.ar    
   5 C5            -1.8547     1.1850     0.7613 C.ar    
   6 C6            -0.6436     1.8329     0.9139 C.ar    
   7 N7            -3.1213    -0.8608     0.5694 N.3     
   8 C8            -4.2288     0.1009     0.4785 C.3     
   9 C9            -5.5380    -0.6542     0.2371 C.3     
  10 N10           -5.7604    -1.6070     1.3336 N.3     
  11 C11           -4.6528    -2.5687     1.4244 C.3     
  12 C12           -3.3436    -1.8136     1.6659 C.3     
  13 C13           -7.0468    -2.2989     1.1771 C.3     
  14 C14           -7.1319    -3.4312     2.1679 C.2     
  15 C15           -6.8973    -4.6952     1.8519 C.2     
  16 S16           -7.0880    -5.7366     3.2509 S.3     
  17 C17           -7.4903    -4.4279     4.2661 C.2     
  18 C18           -7.4726    -3.2457     3.5628 C.2     
  19 C19           -7.7747    -1.9439     4.1574 C.2     
  20 O20           -6.8753    -1.2553     4.6044 O.2     
  21 C21           -9.1723    -1.4641     4.2158 C.ar    
  22 C22           -9.4774    -0.2739     4.8787 C.ar    
  23 C23          -10.7825     0.1685     4.9299 C.ar    
  24 C24          -11.7897    -0.5655     4.3253 C.ar    
  25 C25          -11.4930    -1.7471     3.6662 C.ar    
  26 C26          -10.1908    -2.1966     3.6034 C.ar    
  27 Cl27         -13.4304    -0.0025     4.3944 Cl      
  28 N28           -7.7872    -4.5382     5.6094 N.pl3   
  29 Cl29          -0.5884     3.5672     0.9685 Cl      
  30 Cl30           2.0483     1.9162     1.1965 Cl      
  31 H31            1.4006    -0.8519     1.0503 H       
  32 H32           -0.7531    -2.0140     0.7891 H       
  33 H33           -2.7673     1.7568     0.6799 H       
  34 H34           -4.2997     0.6630     1.4097 H       
  35 H35           -4.0473     0.7876    -0.3483 H       
  36 H36           -6.3650     0.0549     0.1982 H       
  37 H37           -5.4773    -1.1946    -0.7076 H       
  38 H38           -4.8344    -3.2554     2.2512 H       
  39 H39           -4.5820    -3.1308     0.4933 H       
  40 H40           -2.5167    -2.5227     1.7047 H       
  41 H41           -3.4044    -1.2732     2.6105 H       
  42 H42           -7.8610    -1.5969     1.3568 H       
  43 H43           -7.1254    -2.6952     0.1648 H       
  44 H44           -6.6254    -5.0393     0.8650 H       
  45 H45           -8.6930     0.2990     5.3507 H       
  46 H46          -11.0199     1.0889     5.4427 H       
  47 H47          -12.2824    -2.3151     3.1966 H       
  48 H48           -9.9606    -3.1178     3.0889 H       
  49 H49           -7.8520    -5.4140     6.0215 H       
  50 H50           -7.9311    -3.7401     6.1415 H       
@<TRIPOS>BOND
   1    1    2 ar
   2    1   30 1
   3    1    6 ar
   4    2    3 ar
   5    2   31 1
   6    3    4 ar
   7    3   32 1
   8    4    5 ar
   9    4    7 1
  10    5    6 ar
  11    5   33 1
  12    6   29 1
  13    7    8 1
  14    7   12 1
  15    8    9 1
  16    8   34 1
  17    8   35 1
  18    9   10 1
  19    9   36 1
  20    9   37 1
  21   10   11 1
  22   10   13 1
  23   11   12 1
  24   11   38 1
  25   11   39 1
  26   12   40 1
  27   12   41 1
  28   13   14 1
  29   13   42 1
  30   13   43 1
  31   14   15 2
  32   14   18 1
  33   15   16 1
  34   15   44 1
  35   16   17 1
  36   17   18 2
  37   17   28 1
  38   18   19 1
  39   19   20 2
  40   19   21 1
  41   21   22 ar
  42   21   26 ar
  43   22   23 ar
  44   22   45 1
  45   23   24 ar
  46   23   46 1
  47   24   25 ar
  48   24   27 1
  49   25   26 ar
  50   25   47 1
  51   26   48 1
  52   28   49 1
  53   28   50 1

#	End of record

