#	Name: ASD03331305
#	Creating user name:	WinNT
#	Creation time:	15. 06. 2019 20:38

#	Modifying user name:	WinNT
#	Modification time:	15. 06. 2019 20:38

#	Program:	/corina/corina34_cracker 3.40 0067  02.08.2006

@<TRIPOS>MOLECULE
ASD03331305
  57   59    0    0    0
SMALL
NO_CHARGES


@<TRIPOS>ATOM
   1 N1             0.3291     0.8065    -0.3575 N.2     
   2 N2             0.1689    -0.5839    -0.2476 N.am    
   3 C3             1.4001    -1.1455    -0.2664 C.2     
   4 C4             2.3123    -0.1492    -0.3821 C.2     
   5 C5             1.6183     1.0687    -0.4387 C.2     
   6 C6             3.7994    -0.3951    -0.4322 C.3     
   7 C7             1.7843    -2.6022    -0.1820 C.3     
   8 C8             3.2441    -2.7278    -0.6426 C.3     
   9 O9             4.0413    -1.7372     0.0119 O.3     
  10 C10           -1.0023    -1.2422    -0.1417 C.2     
  11 O11           -1.0123    -2.4539    -0.0518 O.2     
  12 N12           -2.1626    -0.5565    -0.1354 N.am    
  13 C13            2.2283     2.4151    -0.5672 C.ar    
  14 C14            1.5830     3.4071    -1.3034 C.ar    
  15 C15            2.1548     4.6592    -1.4203 C.ar    
  16 C16            3.3699     4.9284    -0.8061 C.ar    
  17 C17            4.0131     3.9443    -0.0747 C.ar    
  18 C18            3.4449     2.6928     0.0524 C.ar    
  19 F19            3.9269     6.1537    -0.9227 F       
  20 F20            1.5310     5.6222    -2.1334 F       
  21 C21           -4.5355    -0.4419    -0.6305 C.2     
  22 C22           -3.4358    -1.2721    -0.0203 C.3     
  23 C23           -3.7470    -1.5249     1.4562 C.3     
  24 C24           -3.8456    -0.1876     2.1929 C.3     
  25 O25           -4.3776     0.7497    -0.7916 O.2     
  26 C26           -5.0764    -2.2726     1.5764 C.3     
  27 C27           -2.6302    -2.3674     2.0758 C.3     
  28 N28           -5.6947    -1.0237    -0.9971 N.am    
  29 C29           -6.7958    -0.2041    -1.5091 C.3     
  30 C30           -7.9857    -1.1037    -1.8494 C.3     
  31 O31           -8.4860    -1.7046    -0.6533 O.3     
  32 H32            4.1587    -0.2747    -1.4542 H       
  33 H33            4.3116     0.3083     0.2244 H       
  34 H34            1.6903    -2.9501     0.8467 H       
  35 H35            1.1394    -3.1927    -0.8328 H       
  36 H36            3.6197    -3.7198    -0.3914 H       
  37 H37            3.2979    -2.5824    -1.7215 H       
  38 H38           -2.1547     0.4108    -0.2072 H       
  39 H39            0.6378     3.1972    -1.7818 H       
  40 H40            4.9587     4.1578     0.4014 H       
  41 H41            3.9456     1.9278     0.6273 H       
  42 H42           -3.3658    -2.2248    -0.5452 H       
  43 H43           -4.6412     0.4126     1.7515 H       
  44 H44           -4.0673    -0.3677     3.2448 H       
  45 H45           -2.8984     0.3451     2.1073 H       
  46 H46           -5.0013    -3.2320     1.0647 H       
  47 H47           -5.3057    -2.4392     2.6289 H       
  48 H48           -5.8695    -1.6792     1.1213 H       
  49 H49           -1.6831    -1.8347     1.9902 H       
  50 H50           -2.8519    -2.5475     3.1277 H       
  51 H51           -2.5600    -3.3201     1.5510 H       
  52 H52           -5.7998    -1.9850    -0.9221 H       
  53 H53           -7.0930     0.5199    -0.7504 H       
  54 H54           -6.4702     0.3225    -2.4061 H       
  55 H55           -8.7716    -0.5070    -2.3124 H       
  56 H56           -7.6658    -1.8830    -2.5411 H       
  57 H57           -9.2430    -2.2895    -0.7939 H       
@<TRIPOS>BOND
   1    1    2 1
   2    1    5 2
   3    2    3 1
   4    2   10 am
   5    3    4 2
   6    3    7 1
   7    4    5 1
   8    4    6 1
   9    5   13 1
  10    6    9 1
  11    6   32 1
  12    6   33 1
  13    7    8 1
  14    7   34 1
  15    7   35 1
  16    8    9 1
  17    8   36 1
  18    8   37 1
  19   10   11 2
  20   10   12 am
  21   12   22 1
  22   12   38 1
  23   13   14 ar
  24   13   18 ar
  25   14   15 ar
  26   14   39 1
  27   15   16 ar
  28   15   20 1
  29   16   17 ar
  30   16   19 1
  31   17   18 ar
  32   17   40 1
  33   18   41 1
  34   21   25 2
  35   21   28 am
  36   21   22 1
  37   22   23 1
  38   22   42 1
  39   23   24 1
  40   23   26 1
  41   23   27 1
  42   24   43 1
  43   24   44 1
  44   24   45 1
  45   26   46 1
  46   26   47 1
  47   26   48 1
  48   27   49 1
  49   27   50 1
  50   27   51 1
  51   28   29 1
  52   28   52 1
  53   29   30 1
  54   29   53 1
  55   29   54 1
  56   30   31 1
  57   30   55 1
  58   30   56 1
  59   31   57 1

#	End of record

