#	Name: ASD01881680
#	Creating user name:	WinNT
#	Creation time:	15. 06. 2019 19:43

#	Modifying user name:	WinNT
#	Modification time:	15. 06. 2019 19:43

#	Program:	/corina/corina34_cracker 3.40 0067  02.08.2006

@<TRIPOS>MOLECULE
ASD01881680
  46   49    0    0    0
SMALL
NO_CHARGES


@<TRIPOS>ATOM
   1 N1             0.7021     0.4696    -2.8675 N.pl3   
   2 N2             0.7580    -0.7994    -2.6530 N.2     
   3 N3             1.8880    -1.1483    -2.1461 N.2     
   4 C4             2.6651    -0.0564    -1.9991 C.ar    
   5 C5             1.8957     1.0237    -2.4717 C.ar    
   6 C6             3.9554     0.1761    -1.5153 C.ar    
   7 C7             4.4567     1.4628    -1.5082 C.ar    
   8 C8             3.6854     2.5229    -1.9786 C.ar    
   9 C9             2.4222     2.3087    -2.4550 C.ar    
  10 O10            5.7113     1.6964    -1.0385 O.3     
  11 N11            8.2236     5.0349    -1.1472 N.3     
  12 C12            7.7026     4.6436     0.1687 C.3     
  13 C13            7.2202     3.1922     0.1169 C.3     
  14 C14            6.1257     3.0609    -0.9459 C.3     
  15 C15            6.6798     3.5202    -2.2973 C.3     
  16 C16            7.1778     4.9622    -2.1755 C.3     
  17 C17            8.8222     6.3756    -1.0990 C.3     
  18 C18           10.1999     6.2956    -0.4385 C.3     
  19 F19           10.9796     5.3409    -1.1002 F       
  20 F20           10.8269     7.5439    -0.5147 F       
  21 F21           10.0530     5.9287     0.9036 F       
  22 F22            6.7055     2.8262     1.3652 F       
  23 C23           -0.4345     1.1953    -3.4399 C.3     
  24 C24           -1.3686     1.6483    -2.3161 C.3     
  25 C25           -2.5605     2.5278    -2.6995 C.3     
  26 C26           -2.7844     1.0686    -2.2974 C.3     
  27 Br27           5.0063    -1.2597    -0.8751 Br      
  28 H28            4.0895     3.5244    -1.9670 H       
  29 H29            1.8335     3.1385    -2.8174 H       
  30 H30            8.4919     4.7376     0.9145 H       
  31 H31            6.8699     5.2937     0.4376 H       
  32 H32            8.0555     2.5400    -0.1384 H       
  33 H33            5.2743     3.6833    -0.6707 H       
  34 H34            7.5065     2.8733    -2.5906 H       
  35 H35            5.8926     3.4695    -3.0496 H       
  36 H36            6.3476     5.6107    -1.8957 H       
  37 H37            7.5860     5.2875    -3.1324 H       
  38 H38            8.9271     6.7633    -2.1123 H       
  39 H39            8.1799     7.0397    -0.5206 H       
  40 H40           -0.0719     2.0670    -3.9846 H       
  41 H41           -0.9773     0.5407    -4.1218 H       
  42 H42           -0.8902     1.8399    -1.3556 H       
  43 H43           -2.8664     3.2977    -1.9912 H       
  44 H44           -2.6791     2.7835    -3.7524 H       
  45 H45           -3.0504     0.3645    -3.0858 H       
  46 H46           -3.2376     0.8786    -1.3245 H       
@<TRIPOS>BOND
   1    1    2 1
   2    1    5 1
   3    1   23 1
   4    2    3 2
   5    3    4 1
   6    4    5 ar
   7    4    6 ar
   8    5    9 ar
   9    6    7 ar
  10    6   27 1
  11    7    8 ar
  12    7   10 1
  13    8    9 ar
  14    8   28 1
  15    9   29 1
  16   10   14 1
  17   11   12 1
  18   11   16 1
  19   11   17 1
  20   12   13 1
  21   12   30 1
  22   12   31 1
  23   13   14 1
  24   13   22 1
  25   13   32 1
  26   14   15 1
  27   14   33 1
  28   15   16 1
  29   15   34 1
  30   15   35 1
  31   16   36 1
  32   16   37 1
  33   17   18 1
  34   17   38 1
  35   17   39 1
  36   18   19 1
  37   18   20 1
  38   18   21 1
  39   23   24 1
  40   23   40 1
  41   23   41 1
  42   24   25 1
  43   24   26 1
  44   24   42 1
  45   25   26 1
  46   25   43 1
  47   25   44 1
  48   26   45 1
  49   26   46 1

#	End of record

