#	Name: ASD02500832
#	Creating user name:	WinNT
#	Creation time:	15. 06. 2019 20:23

#	Modifying user name:	WinNT
#	Modification time:	15. 06. 2019 20:23

#	Program:	/corina/corina34_cracker 3.40 0067  02.08.2006

@<TRIPOS>MOLECULE
ASD02500832
  29   30    0    0    0
SMALL
NO_CHARGES


@<TRIPOS>ATOM
   1 C1            -0.0169     1.3921     0.0097 C.ar    
   2 C2             0.0021    -0.0041     0.0020 C.ar    
   3 C3            -1.1838    -0.7099     0.0100 C.ar    
   4 C4            -2.3925    -0.0394     0.0252 C.ar    
   5 C5            -2.4220     1.3499     0.0325 C.ar    
   6 C6            -1.2375     2.0682     0.0308 C.ar    
   7 C7             1.2508     2.1507     0.0017 C.2     
   8 O8             2.4278     1.4955    -0.0131 O.3     
   9 O9             1.2319     3.3652     0.0084 O.2     
  10 N10           -3.6511     2.0248     0.0474 N.pl3   
  11 C11           -4.5653     1.9920     1.0614 C.2     
  12 C12           -5.6137     2.7633     0.7084 C.2     
  13 C13           -5.3388     3.2920    -0.5688 C.2     
  14 C14           -4.1302     2.8288    -0.9471 C.2     
  15 C15           -4.4268     1.2257     2.3516 C.3     
  16 C16           -3.4329     3.1373    -2.2470 C.3     
  17 H17            0.9445    -0.5314    -0.0105 H       
  18 H18           -1.1674    -1.7897     0.0041 H       
  19 H19           -3.3172    -0.5972     0.0310 H       
  20 H20           -1.2587     3.1480     0.0368 H       
  21 H21            3.2304     2.0349    -0.0179 H       
  22 H22           -6.5016     2.9424     1.2965 H       
  23 H23           -5.9776     3.9506    -1.1386 H       
  24 H24           -3.9405     1.8547     3.0973 H       
  25 H25           -5.4145     0.9353     2.7096 H       
  26 H26           -3.8250     0.3330     2.1812 H       
  27 H27           -2.8163     4.0281    -2.1260 H       
  28 H28           -2.8022     2.2946    -2.5299 H       
  29 H29           -4.1758     3.3126    -3.0251 H       
@<TRIPOS>BOND
   1    1    2 ar
   2    1    7 1
   3    1    6 ar
   4    2    3 ar
   5    2   17 1
   6    3    4 ar
   7    3   18 1
   8    4    5 ar
   9    4   19 1
  10    5    6 ar
  11    5   10 1
  12    6   20 1
  13    7    8 1
  14    7    9 2
  15    8   21 1
  16   10   11 1
  17   10   14 1
  18   11   12 2
  19   11   15 1
  20   12   13 1
  21   12   22 1
  22   13   14 2
  23   13   23 1
  24   14   16 1
  25   15   24 1
  26   15   25 1
  27   15   26 1
  28   16   27 1
  29   16   28 1
  30   16   29 1

#	End of record

