#	Name: ASD03430935
#	Creating user name:	WinNT
#	Creation time:	15. 06. 2019 20:41

#	Modifying user name:	WinNT
#	Modification time:	15. 06. 2019 20:41

#	Program:	/corina/corina34_cracker 3.40 0067  02.08.2006

@<TRIPOS>MOLECULE
ASD03430935
  48   52    0    0    0
SMALL
NO_CHARGES


@<TRIPOS>ATOM
   1 O1            -0.0175     1.4360     0.0099 O.3     
   2 C2             0.0021    -0.0041     0.0020 C.3     
   3 C3             1.3459    -0.3164    -0.6704 C.3     
   4 C4             2.1588     0.9230    -0.4083 C.ar    
   5 C5             1.2615     1.9063     0.0003 C.ar    
   6 C6             1.7480     3.1684     0.3261 C.ar    
   7 C7             3.1021     3.4398     0.2350 C.ar    
   8 C8             3.9847     2.4533    -0.1824 C.ar    
   9 C9             3.5067     1.1966    -0.5017 C.ar    
  10 N10            2.1599    -2.4046    -1.1201 N.am    
  11 C11            1.9849    -1.5476    -0.0947 C.2     
  12 C12            1.1890    -0.5977    -2.1352 C.ar    
  13 C13            0.6783     0.1206    -3.1928 C.ar    
  14 C14            0.6718    -0.4267    -4.4639 C.ar    
  15 C15            1.1793    -1.6964    -4.6693 C.ar    
  16 C16            1.6919    -2.4205    -3.6126 C.ar    
  17 C17            1.7031    -1.8775    -2.3305 C.ar    
  18 O18            2.2851    -1.7339     1.0656 O.2     
  19 C19            2.7593    -3.7342    -0.9815 C.3     
  20 C20            1.6793    -4.7442    -0.6908 C.ar    
  21 N21            1.2787    -4.9308     0.5519 N.ar    
  22 C22            1.1162    -5.4602    -1.7299 C.ar    
  23 C23            0.1231    -6.3872    -1.4517 C.ar    
  24 C24           -0.2677    -6.5598    -0.1329 C.ar    
  25 C25            0.3373    -5.8034     0.8533 C.ar    
  26 O26            3.5687     4.6755     0.5545 O.3     
  27 C27            5.4582     2.7514    -0.2870 C.3     
  28 C28            2.6057     5.6435     0.9761 C.3     
  29 H29           -0.0224    -0.3969     1.0185 H       
  30 H30           -0.8260    -0.3990    -0.5865 H       
  31 H31            1.0658     3.9399     0.6513 H       
  32 H32            4.1911     0.4266    -0.8260 H       
  33 H33            0.2821     1.1120    -3.0303 H       
  34 H34            0.2715     0.1368    -5.2937 H       
  35 H35            1.1741    -2.1234    -5.6613 H       
  36 H36            2.0862    -3.4118    -3.7806 H       
  37 H37            3.2674    -4.0021    -1.9078 H       
  38 H38            3.4782    -3.7250    -0.1622 H       
  39 H39            1.4452    -5.2995    -2.7460 H       
  40 H40           -0.3352    -6.9609    -2.2437 H       
  41 H41           -1.0383    -7.2727     0.1202 H       
  42 H42            0.0388    -5.9320     1.8832 H       
  43 H43            5.9428     2.5263     0.6630 H       
  44 H44            5.8980     2.1381    -1.0735 H       
  45 H45            5.5996     3.8053    -0.5263 H       
  46 H46            3.1097     6.5837     1.2001 H       
  47 H47            1.8776     5.8020     0.1806 H       
  48 H48            2.0953     5.2831     1.8693 H       
@<TRIPOS>BOND
   1    1    2 1
   2    1    5 1
   3    2    3 1
   4    2   29 1
   5    2   30 1
   6    3    4 1
   7    3   11 1
   8    3   12 1
   9    4    5 ar
  10    4    9 ar
  11    5    6 ar
  12    6    7 ar
  13    6   31 1
  14    7    8 ar
  15    7   26 1
  16    8    9 ar
  17    8   27 1
  18    9   32 1
  19   10   11 am
  20   10   17 1
  21   10   19 1
  22   11   18 2
  23   12   13 ar
  24   12   17 ar
  25   13   14 ar
  26   13   33 1
  27   14   15 ar
  28   14   34 1
  29   15   16 ar
  30   15   35 1
  31   16   17 ar
  32   16   36 1
  33   19   20 1
  34   19   37 1
  35   19   38 1
  36   20   21 ar
  37   20   22 ar
  38   21   25 ar
  39   22   23 ar
  40   22   39 1
  41   23   24 ar
  42   23   40 1
  43   24   25 ar
  44   24   41 1
  45   25   42 1
  46   26   28 1
  47   27   43 1
  48   27   44 1
  49   27   45 1
  50   28   46 1
  51   28   47 1
  52   28   48 1

#	End of record

