#	Name: ASD01916222
#	Creating user name:	WinNT
#	Creation time:	15. 06. 2019 20:06

#	Modifying user name:	WinNT
#	Modification time:	15. 06. 2019 20:06

#	Program:	/corina/corina34_cracker 3.40 0067  02.08.2006

@<TRIPOS>MOLECULE
ASD01916222
  31   33    0    0    0
SMALL
NO_CHARGES


@<TRIPOS>ATOM
   1 C1             0.4265     1.2254    -0.4146 C.ar    
   2 C2             0.6390    -0.1378    -0.3272 C.ar    
   3 C3             1.7833    -0.6253     0.2707 C.ar    
   4 C4             2.7304     0.2595     0.7890 C.ar    
   5 C5             2.5149     1.6353     0.6998 C.ar    
   6 C6             1.3630     2.1136     0.0982 C.ar    
   7 O7             1.1490     3.4526     0.0092 O.3     
   8 C8             1.6338     4.1051    -1.0798 C.ar    
   9 C9             1.5398     5.4862    -1.1722 C.ar    
  10 N10            2.0091     6.1233    -2.2266 N.ar    
  11 C11            2.5815     5.4830    -3.2271 C.ar    
  12 C12            2.7115     4.1067    -3.2074 C.ar    
  13 C13            2.2370     3.3981    -2.1157 C.ar    
  14 C14            3.9570    -0.2590     1.4305 C.2     
  15 N15            4.1625    -1.5883     1.5158 N.am    
  16 O16            4.7802     0.5134     1.8811 O.2     
  17 C17            5.3133    -2.0748     2.1176 C.2     
  18 S18            6.5976    -1.1629     2.8160 S.3     
  19 N19            7.5009    -2.5285     3.2716 N.2     
  20 C20            6.8050    -3.5579     2.8837 C.2     
  21 N21            5.6592    -3.3332     2.2847 N.2     
  22 H22           -0.4689     1.6011    -0.8873 H       
  23 H23           -0.0929    -0.8234    -0.7279 H       
  24 H24            1.9458    -1.6909     0.3378 H       
  25 H25            3.2438     2.3249     1.0992 H       
  26 H26            1.0769     6.0450    -0.3723 H       
  27 H27            2.9536     6.0412    -4.0735 H       
  28 H28            3.1811     3.5904    -4.0317 H       
  29 H29            2.3251     2.3225    -2.0735 H       
  30 H30            3.5055    -2.2047     1.1562 H       
  31 H31            7.1574    -4.5646     3.0530 H       
@<TRIPOS>BOND
   1    1    2 ar
   2    1    6 ar
   3    1   22 1
   4    2    3 ar
   5    2   23 1
   6    3    4 ar
   7    3   24 1
   8    4    5 ar
   9    4   14 1
  10    5    6 ar
  11    5   25 1
  12    6    7 1
  13    7    8 1
  14    8    9 ar
  15    8   13 ar
  16    9   10 ar
  17    9   26 1
  18   10   11 ar
  19   11   12 ar
  20   11   27 1
  21   12   13 ar
  22   12   28 1
  23   13   29 1
  24   14   15 am
  25   14   16 2
  26   15   17 1
  27   15   30 1
  28   17   18 1
  29   17   21 2
  30   18   19 1
  31   19   20 2
  32   20   21 1
  33   20   31 1

#	End of record

