#	Name: ASD01870634
#	Creating user name:	WinNT
#	Creation time:	15. 06. 2019 19:39

#	Modifying user name:	WinNT
#	Modification time:	15. 06. 2019 19:39

#	Program:	/corina/corina34_cracker 3.40 0067  02.08.2006

@<TRIPOS>MOLECULE
ASD01870634
  36   39    0    0    0
SMALL
NO_CHARGES


@<TRIPOS>ATOM
   1 C1             0.0351     1.3463    -0.2729 C.ar    
   2 C2             0.0506    -0.0349    -0.1511 C.ar    
   3 C3             1.2350    -0.7033     0.0935 C.ar    
   4 C4             2.4246    -0.0022     0.2206 C.ar    
   5 C5             1.2158     2.0599    -0.1483 C.ar    
   6 C6             1.5677     3.4938    -0.2177 C.2     
   7 C7             2.4244     1.3778     0.1013 C.ar    
   8 C8             3.4692     2.4208     0.1756 C.2     
   9 N9             2.8923     3.6202    -0.0202 N.am    
  10 C10            3.5817     4.8426    -0.0179 C.ar    
  11 C11            3.7364     5.5501     1.1664 C.ar    
  12 C12            4.4149     6.7523     1.1692 C.ar    
  13 C13            4.9427     7.2550    -0.0132 C.ar    
  14 C14            4.7883     6.5480    -1.1983 C.ar    
  15 C15            4.1143     5.3419    -1.1999 C.ar    
  16 O16            0.7909     4.4054    -0.4193 O.2     
  17 O17            4.6509     2.2272     0.3786 O.2     
  18 N18            5.6298     8.4747    -0.0102 N.am    
  19 Cl19           3.9271     4.4539    -2.6798 Cl      
  20 C20            5.5247     9.3100    -1.0627 C.2     
  21 C21            6.1633    10.6360    -1.0170 C.2     
  22 O22            4.9022     8.9685    -2.0505 O.2     
  23 N23            6.8655    11.0724     0.0319 N.2     
  24 C24            6.0985    11.5233    -2.0353 C.2     
  25 S25            6.9613    12.9319    -1.5953 S.3     
  26 C26            7.3623    12.2538    -0.0802 C.2     
  27 H27           -0.8928     1.8631    -0.4685 H       
  28 H28           -0.8695    -0.5921    -0.2478 H       
  29 H29            1.2342    -1.7793     0.1867 H       
  30 H30            3.3473    -0.5299     0.4121 H       
  31 H31            3.3256     5.1599     2.0859 H       
  32 H32            4.5350     7.3023     2.0909 H       
  33 H33            5.1986     6.9387    -2.1178 H       
  34 H34            6.1816     8.7187     0.7493 H       
  35 H35            5.5859    11.3674    -2.9730 H       
  36 H36            7.9523    12.7475     0.6778 H       
@<TRIPOS>BOND
   1    1    2 ar
   2    1    5 ar
   3    1   27 1
   4    2    3 ar
   5    2   28 1
   6    3    4 ar
   7    3   29 1
   8    4    7 ar
   9    4   30 1
  10    5    7 ar
  11    5    6 1
  12    6    9 am
  13    6   16 2
  14    7    8 1
  15    8    9 am
  16    8   17 2
  17    9   10 1
  18   10   11 ar
  19   10   15 ar
  20   11   12 ar
  21   11   31 1
  22   12   13 ar
  23   12   32 1
  24   13   14 ar
  25   13   18 1
  26   14   15 ar
  27   14   33 1
  28   15   19 1
  29   18   20 am
  30   18   34 1
  31   20   21 1
  32   20   22 2
  33   21   24 2
  34   21   23 1
  35   23   26 2
  36   24   25 1
  37   24   35 1
  38   25   26 1
  39   26   36 1

#	End of record

