#	Name: ASD04910098
#	Creating user name:	WinNT
#	Creation time:	15. 06. 2019 20:55

#	Modifying user name:	WinNT
#	Modification time:	15. 06. 2019 20:55

#	Program:	/corina/corina34_cracker 3.40 0067  02.08.2006

@<TRIPOS>MOLECULE
ASD04910098
  26   27    0    0    0
SMALL
NO_CHARGES


@<TRIPOS>ATOM
   1 N1            -0.0169     1.3966     0.0097 N.pl3   
   2 N2             0.0021    -0.0041     0.0020 N.2     
   3 C3             1.2498    -0.3985    -0.0120 C.2     
   4 C4             2.0714     0.7365    -0.0138 C.2     
   5 C5             1.2706     1.8305    -0.0002 C.2     
   6 O6             3.4336     0.7401    -0.0268 O.3     
   7 C7             4.0857    -0.5314    -0.0404 C.3     
   8 C8            -1.2125     2.2431     0.0202 C.3     
   9 C9            -2.0995     1.8742    -1.1409 C.ar    
  10 C10           -3.0694     0.9011    -0.9880 C.ar    
  11 C11           -3.8829     0.5627    -2.0531 C.ar    
  12 C12           -3.7269     1.1976    -3.2711 C.ar    
  13 C13           -2.7576     2.1713    -3.4238 C.ar    
  14 C14           -1.9469     2.5128    -2.3574 C.ar    
  15 H15            1.5885    -1.4240    -0.0204 H       
  16 H16            1.5970     2.8600     0.0019 H       
  17 H17            3.7858    -1.0840    -0.9307 H       
  18 H18            5.1659    -0.3857    -0.0498 H       
  19 H19            3.8028    -1.0943     0.8491 H       
  20 H20           -1.7552     2.0939     0.9537 H       
  21 H21           -0.9180     3.2890    -0.0655 H       
  22 H22           -3.1913     0.4051    -0.0364 H       
  23 H23           -4.6402    -0.1980    -1.9338 H       
  24 H24           -4.3620     0.9327    -4.1034 H       
  25 H25           -2.6354     2.6671    -4.3754 H       
  26 H26           -1.1921     3.2761    -2.4756 H       
@<TRIPOS>BOND
   1    1    2 1
   2    1    5 1
   3    1    8 1
   4    2    3 2
   5    3    4 1
   6    3   15 1
   7    4    5 2
   8    4    6 1
   9    5   16 1
  10    6    7 1
  11    7   17 1
  12    7   18 1
  13    7   19 1
  14    8    9 1
  15    8   20 1
  16    8   21 1
  17    9   10 ar
  18    9   14 ar
  19   10   11 ar
  20   10   22 1
  21   11   12 ar
  22   11   23 1
  23   12   13 ar
  24   12   24 1
  25   13   14 ar
  26   13   25 1
  27   14   26 1

#	End of record

