#	Name: ASD01810928
#	Creating user name:	WinNT
#	Creation time:	15. 06. 2019 19:25

#	Modifying user name:	WinNT
#	Modification time:	15. 06. 2019 19:25

#	Program:	/corina/corina34_cracker 3.40 0067  02.08.2006

@<TRIPOS>MOLECULE
ASD01810928
  63   67    0    0    0
SMALL
NO_CHARGES


@<TRIPOS>ATOM
   1 C1            -0.0575     1.6526    -0.1705 C.ar    
   2 C2            -0.2568     0.2731    -0.0895 C.ar    
   3 C3            -1.6271    -0.2815    -0.1204 C.2     
   4 N4            -2.6167     0.3291     0.5611 N.am    
   5 O5            -1.8611    -1.2880    -0.7604 O.2     
   6 C6            -2.3282     1.4758     1.4331 C.3     
   7 C7             0.8409    -0.5800     0.0202 C.ar    
   8 C8             2.1229    -0.0525     0.0481 C.ar    
   9 C9             2.3105     1.3220    -0.0332 C.ar    
  10 C10            1.2222     2.1677    -0.1419 C.ar    
  11 N11            3.2273    -0.9039     0.1585 N.am    
  12 C12           -2.8956     1.1902     2.8271 C.3     
  13 C13           -4.3829     0.8495     2.7082 C.3     
  14 C14           -4.5532    -0.4066     1.8507 C.3     
  15 C15           -4.0054    -0.1356     0.4413 C.3     
  16 C16           -4.9524     0.6012     4.0812 C.ar    
  17 C17           -5.9908     1.3790     4.5701 C.ar    
  18 C18           -6.4879     1.1216     5.8337 C.ar    
  19 N19           -5.9857     0.1505     6.5711 N.ar    
  20 C20           -4.9982    -0.6090     6.1386 C.ar    
  21 C21           -4.4543    -0.4143     4.8831 C.ar    
  22 C22            3.7049     1.8927    -0.0021 C.3     
  23 C23            3.1330    -2.0402     0.8771 C.2     
  24 C24            4.3246    -2.8858     1.0797 C.ar    
  25 O25            2.0657    -2.3683     1.3586 O.2     
  26 C26            5.5546    -2.5186     0.5316 C.ar    
  27 N27            6.6188    -3.2728     0.7119 N.ar    
  28 C28            6.5639    -4.3971     1.4128 C.ar    
  29 C29            5.3686    -4.8247     1.9886 C.ar    
  30 C30            4.2391    -4.0682     1.8312 C.ar    
  31 N31            7.7099    -5.1573     1.5746 N.3     
  32 C32            8.8585    -4.5340     0.8910 C.3     
  33 C33            9.7149    -4.9075     2.1091 C.3     
  34 C34            8.3741    -4.8464     2.8541 C.3     
  35 H35           -0.9048     2.3163    -0.2600 H       
  36 H36           -1.2501     1.6217     1.5003 H       
  37 H37           -2.7956     2.3720     1.0249 H       
  38 H38            0.6929    -1.6479     0.0836 H       
  39 H39            1.3743     3.2351    -0.2047 H       
  40 H40            4.0609    -0.6765    -0.2822 H       
  41 H41           -2.3639     0.3485     3.2709 H       
  42 H42           -2.7735     2.0713     3.4571 H       
  43 H43           -4.9099     1.6818     2.2417 H       
  44 H44           -4.0059    -1.2333     2.3037 H       
  45 H45           -5.6108    -0.6621     1.7858 H       
  46 H46           -4.6113     0.6285    -0.0456 H       
  47 H47           -4.0327    -1.0545    -0.1443 H       
  48 H48           -6.4058     2.1762     3.9712 H       
  49 H49           -7.2966     1.7229     6.2219 H       
  50 H50           -4.6127    -1.3947     6.7714 H       
  51 H51           -3.6459    -1.0397     4.5344 H       
  52 H52            4.0915     1.9629    -1.0189 H       
  53 H53            3.6812     2.8857     0.4469 H       
  54 H54            4.3506     1.2424     0.5880 H       
  55 H55            5.6341    -1.6090    -0.0451 H       
  56 H56            5.3351    -5.7423     2.5572 H       
  57 H57            3.3013    -4.3784     2.2677 H       
  58 H58            9.1532    -5.0511    -0.0221 H       
  59 H59            8.7489    -3.4587     0.7506 H       
  60 H60           10.1522    -5.9046     2.0583 H       
  61 H61           10.4266    -4.1377     2.4072 H       
  62 H62            8.1352    -3.8544     3.2375 H       
  63 H63            8.2583    -5.6282     3.6047 H       
@<TRIPOS>BOND
   1    1    2 ar
   2    1   10 ar
   3    1   35 1
   4    2    3 1
   5    2    7 ar
   6    3    4 am
   7    3    5 2
   8    4    6 1
   9    4   15 1
  10    6   12 1
  11    6   36 1
  12    6   37 1
  13    7    8 ar
  14    7   38 1
  15    8    9 ar
  16    8   11 1
  17    9   10 ar
  18    9   22 1
  19   10   39 1
  20   11   23 am
  21   11   40 1
  22   12   13 1
  23   12   41 1
  24   12   42 1
  25   13   14 1
  26   13   16 1
  27   13   43 1
  28   14   15 1
  29   14   44 1
  30   14   45 1
  31   15   46 1
  32   15   47 1
  33   16   17 ar
  34   16   21 ar
  35   17   18 ar
  36   17   48 1
  37   18   19 ar
  38   18   49 1
  39   19   20 ar
  40   20   21 ar
  41   20   50 1
  42   21   51 1
  43   22   52 1
  44   22   53 1
  45   22   54 1
  46   23   24 1
  47   23   25 2
  48   24   26 ar
  49   24   30 ar
  50   26   27 ar
  51   26   55 1
  52   27   28 ar
  53   28   29 ar
  54   28   31 1
  55   29   30 ar
  56   29   56 1
  57   30   57 1
  58   31   32 1
  59   31   34 1
  60   32   33 1
  61   32   58 1
  62   32   59 1
  63   33   34 1
  64   33   60 1
  65   33   61 1
  66   34   62 1
  67   34   63 1

#	End of record

