#	Name: ASD05792005
#	Creating user name:	WinNT
#	Creation time:	15. 06. 2019 21:03

#	Modifying user name:	WinNT
#	Modification time:	15. 06. 2019 21:03

#	Program:	/corina/corina34_cracker 3.40 0067  02.08.2006

@<TRIPOS>MOLECULE
ASD05792005
  65   68    0    0    0
SMALL
NO_CHARGES


@<TRIPOS>ATOM
   1 C1             0.1318     2.0210    -0.1619 C.3     
   2 C2            -0.0995     0.5189    -0.3357 C.3     
   3 C3             0.3349    -0.2150     0.9363 C.3     
   4 C4             1.7777     0.1561     1.2355 C.2     
   5 C5             2.1335     1.6126     1.2757 C.3     
   6 C6             1.6280     2.2960     0.0021 C.3     
   7 C7             2.6296    -0.8042     1.4454 C.2     
   8 C8             4.0805    -0.5604     1.7422 C.3     
   9 C9             4.2389     0.8206     2.3879 C.3     
  10 C10            3.6226     1.8634     1.4451 C.3     
  11 C11            5.7145     1.1468     2.5318 C.3     
  12 C12            5.8147     2.5359     3.2172 C.3     
  13 C13            5.3402     3.5653     2.2091 C.3     
  14 C14            3.8522     3.2869     1.9451 C.3     
  15 C15            6.5008     0.2623     3.5056 C.3     
  16 C16            7.7188     1.1516     3.8767 C.3     
  17 C17            7.2805     2.6170     3.6316 C.3     
  18 H18            3.7375     0.8439     3.3555 H       
  19 O19           -1.4869     0.2753    -0.5760 O.3     
  20 C20            7.4235     3.4351     4.9166 C.3     
  21 C21            8.8905     3.4497     5.3512 C.3     
  22 H22            6.1969     1.1561     1.5544 H       
  23 O23            6.6273     2.8466     5.9470 O.3     
  24 H24            4.0998     1.7695     0.4696 H       
  25 H25            7.8748     3.0604     2.8327 H       
  26 C26            1.4181     2.2455     2.4710 C.3     
  27 C27            4.9168     2.5700     4.4555 C.3     
  28 C28            6.9522     4.8685     4.6638 C.3     
  29 C29            9.0335     4.2678     6.6362 C.3     
  30 C30           10.4448     4.2819     7.0543 C.1     
  31 C31           11.5704     4.2932     7.3878 C.1     
  32 H32           -0.2400     2.5492    -1.0399 H       
  33 H33           -0.4003     2.3700     0.7230 H       
  34 H34            0.4848     0.1568    -1.1816 H       
  35 H35           -0.3015     0.0852     1.7688 H       
  36 H36            0.2570    -1.2915     0.7837 H       
  37 H37            2.1666     1.9025    -0.8600 H       
  38 H38            1.7942     3.3707     0.0756 H       
  39 H39            2.2765    -1.8241     1.4045 H       
  40 H40            4.4458    -1.3263     2.4264 H       
  41 H41            4.6527    -0.5966     0.8152 H       
  42 H42            5.4638     4.5687     2.6166 H       
  43 H43            5.9066     3.4670     1.2830 H       
  44 H44            3.4867     3.9896     1.1963 H       
  45 H45            3.2939     3.4330     2.8698 H       
  46 H46            5.9043     0.0369     4.3896 H       
  47 H47            6.8279    -0.6548     3.0156 H       
  48 H48            7.9801     1.0097     4.9253 H       
  49 H49            8.5697     0.9045     3.2419 H       
  50 H50           -1.7072    -0.6586    -0.6960 H       
  51 H51            9.2263     2.4285     5.5313 H       
  52 H52            9.4978     3.8986     4.5652 H       
  53 H53            6.8709     1.9354     6.1603 H       
  54 H54            1.8372     1.8501     3.3962 H       
  55 H55            1.5527     3.3268     2.4440 H       
  56 H56            0.3548     2.0104     2.4241 H       
  57 H57            5.2355     1.7987     5.1568 H       
  58 H58            4.9918     3.5475     4.9319 H       
  59 H59            3.8835     2.3879     4.1602 H       
  60 H60            5.9071     4.8581     4.3542 H       
  61 H61            7.0541     5.4513     5.5792 H       
  62 H62            7.5595     5.3174     3.8778 H       
  63 H63            8.6977     5.2890     6.4561 H       
  64 H64            8.4262     3.8189     7.4222 H       
  65 H65           12.5771     4.3033     7.6861 H       
@<TRIPOS>BOND
   1    1    2 1
   2    1    6 1
   3    1   32 1
   4    1   33 1
   5    2    3 1
   6    2   19 1
   7    2   34 1
   8    3    4 1
   9    3   35 1
  10    3   36 1
  11    4    5 1
  12    4    7 2
  13    5    6 1
  14    5   10 1
  15    5   26 1
  16    6   37 1
  17    6   38 1
  18    7    8 1
  19    7   39 1
  20    8    9 1
  21    8   40 1
  22    8   41 1
  23    9   10 1
  24    9   18 1
  25    9   11 1
  26   10   24 1
  27   10   14 1
  28   11   15 1
  29   11   22 1
  30   11   12 1
  31   12   13 1
  32   12   27 1
  33   12   17 1
  34   13   14 1
  35   13   42 1
  36   13   43 1
  37   14   44 1
  38   14   45 1
  39   15   16 1
  40   15   46 1
  41   15   47 1
  42   16   17 1
  43   16   48 1
  44   16   49 1
  45   17   20 1
  46   17   25 1
  47   19   50 1
  48   20   21 1
  49   20   23 1
  50   20   28 1
  51   21   29 1
  52   21   51 1
  53   21   52 1
  54   23   53 1
  55   26   54 1
  56   26   55 1
  57   26   56 1
  58   27   57 1
  59   27   58 1
  60   27   59 1
  61   28   60 1
  62   28   61 1
  63   28   62 1
  64   29   30 1
  65   29   63 1
  66   29   64 1
  67   30   31 3
  68   31   65 1

#	End of record

