#	Name: ASD03430228
#	Creating user name:	WinNT
#	Creation time:	15. 06. 2019 20:40

#	Modifying user name:	WinNT
#	Modification time:	15. 06. 2019 20:40

#	Program:	/corina/corina34_cracker 3.40 0067  02.08.2006

@<TRIPOS>MOLECULE
ASD03430228
  48   53    0    0    0
SMALL
NO_CHARGES


@<TRIPOS>ATOM
   1 C1            -0.0167     1.3821     0.0096 C.ar    
   2 C2             0.0021    -0.0041     0.0020 C.ar    
   3 C3             1.2028    -0.6818    -0.0162 C.ar    
   4 C4             2.4087     0.0129    -0.0162 C.ar    
   5 C5             2.3861     1.4039    -0.0119 C.ar    
   6 C6             1.1815     2.0867     0.0020 C.ar    
   7 O7             3.4713    -0.8419    -0.0074 O.3     
   8 C8             1.5511    -2.1458    -0.0509 C.3     
   9 C9             3.0363    -2.1458    -0.4380 C.3     
  10 C10            0.4268    -3.8598     1.0070 C.ar    
  11 C11            1.3158    -2.8198     1.2682 C.ar    
  12 C12            0.7167    -2.9064    -1.0410 C.2     
  13 N13            0.0966    -3.8836    -0.3502 N.am    
  14 O14            0.6192    -2.6843    -2.2294 O.2     
  15 C15            1.7821    -2.6009     2.5448 C.ar    
  16 C16            1.3690    -3.4172     3.5832 C.ar    
  17 C17            0.4871    -4.4527     3.3353 C.ar    
  18 C18            0.0170    -4.6765     2.0576 C.ar    
  19 C19           -0.8166    -4.8579    -0.9526 C.3     
  20 C20           -2.2242    -4.3214    -0.9082 C.2     
  21 O21           -3.1042    -4.5064     0.0894 O.3     
  22 C22           -4.2572    -3.8862    -0.2099 C.2     
  23 C23           -4.1227    -3.2950    -1.4106 C.2     
  24 C24           -2.8104    -3.5711    -1.8584 C.2     
  25 O25           -1.2113     2.0356     0.0189 O.3     
  26 C26           -1.1865     3.4165     0.3963 C.3     
  27 C27           -0.0349     4.0988    -0.3543 C.3     
  28 O28            1.1866     3.4483     0.0115 O.3     
  29 C29           -5.4924    -3.8578     0.6530 C.3     
  30 F30           -5.1222    -3.9351     1.9999 F       
  31 F31           -6.1905    -2.6663     0.4289 F       
  32 H32           -0.9268    -0.5550     0.0107 H       
  33 H33            3.3148     1.9551    -0.0190 H       
  34 H34            3.1554    -2.2571    -1.5158 H       
  35 H35            3.5752    -2.9292     0.0949 H       
  36 H36            2.4713    -1.7916     2.7361 H       
  37 H37            1.7349    -3.2459     4.5848 H       
  38 H38            0.1649    -5.0898     4.1457 H       
  39 H39           -0.6714    -5.4876     1.8718 H       
  40 H40           -0.5276    -5.0346    -1.9886 H       
  41 H41           -0.7671    -5.7943    -0.3969 H       
  42 H42           -4.8721    -2.7172    -1.9311 H       
  43 H43           -2.3660    -3.2472    -2.7879 H       
  44 H44           -2.1315     3.8882     0.1269 H       
  45 H45           -1.0261     3.5010     1.4711 H       
  46 H46           -0.1916     4.0078    -1.4291 H       
  47 H47            0.0118     5.1519    -0.0769 H       
  48 H48           -6.1303    -4.7053     0.4023 H       
@<TRIPOS>BOND
   1    1    2 ar
   2    1    6 ar
   3    1   25 1
   4    2    3 ar
   5    2   32 1
   6    3    4 ar
   7    3    8 1
   8    4    5 ar
   9    4    7 1
  10    5    6 ar
  11    5   33 1
  12    6   28 1
  13    7    9 1
  14    8    9 1
  15    8   11 1
  16    8   12 1
  17    9   34 1
  18    9   35 1
  19   10   11 ar
  20   10   13 1
  21   10   18 ar
  22   11   15 ar
  23   12   13 am
  24   12   14 2
  25   13   19 1
  26   15   16 ar
  27   15   36 1
  28   16   17 ar
  29   16   37 1
  30   17   18 ar
  31   17   38 1
  32   18   39 1
  33   19   20 1
  34   19   40 1
  35   19   41 1
  36   20   21 1
  37   20   24 2
  38   21   22 1
  39   22   23 2
  40   22   29 1
  41   23   24 1
  42   23   42 1
  43   24   43 1
  44   25   26 1
  45   26   27 1
  46   26   44 1
  47   26   45 1
  48   27   28 1
  49   27   46 1
  50   27   47 1
  51   29   30 1
  52   29   31 1
  53   29   48 1

#	End of record

