#	Name: ASD08560001
#	Creating user name:	WinNT
#	Creation time:	15. 06. 2019 21:19

#	Modifying user name:	WinNT
#	Modification time:	15. 06. 2019 21:19

#	Program:	/corina/corina34_cracker 3.40 0067  02.08.2006

@<TRIPOS>MOLECULE
ASD08560001
  45   47    0    0    0
SMALL
NO_CHARGES


@<TRIPOS>ATOM
   1 C1            -0.0187     1.5258     0.0104 C.3     
   2 C2             0.0021    -0.0041     0.0020 C.3     
   3 C3             0.7421    -0.5109     1.2415 C.3     
   4 C4             0.0259    -0.0175     2.5003 C.3     
   5 C5             0.0052     1.5124     2.5088 C.3     
   6 C6            -0.7348     2.0192     1.2692 C.3     
   7 O7             1.3220     2.0204     0.0003 O.3     
   8 C8            -0.7556     3.5490     1.2776 C.3     
   9 C9            -1.4956     4.0559     0.0381 C.3     
  10 C10           -1.5163     5.5857     0.0465 C.3     
  11 C11           -2.2324     6.0791     1.3053 C.3     
  12 C12           -1.4924     5.5723     2.5449 C.3     
  13 C13           -1.4717     4.0424     2.5364 C.3     
  14 C14           -2.2529     7.5860     1.3136 C.ar    
  15 C15           -3.4592     8.2608     1.3288 C.ar    
  16 C16           -3.4780     9.6430     1.3363 C.ar    
  17 C17           -2.2904    10.3503     1.3292 C.ar    
  18 C18           -1.0840     9.6755     1.3150 C.ar    
  19 C19           -1.0652     8.2933     1.3118 C.ar    
  20 H20           -0.5459     1.8868    -0.8726 H       
  21 H21           -1.0205    -0.3814     0.0098 H       
  22 H22            0.5123    -0.3556    -0.8948 H       
  23 H23            0.7568    -1.6008     1.2356 H       
  24 H24            1.7647    -0.1336     1.2338 H       
  25 H25           -0.9967    -0.3948     2.5081 H       
  26 H26            0.5531    -0.3786     3.3834 H       
  27 H27           -0.5050     1.8639     3.4056 H       
  28 H28            1.0278     1.8896     2.5010 H       
  29 H29           -1.7574     1.6419     1.2770 H       
  30 H30            1.8365     1.7462    -0.7712 H       
  31 H31            0.2670     3.9263     1.2699 H       
  32 H32           -0.9854     3.7043    -0.8587 H       
  33 H33           -2.5181     3.6786     0.0459 H       
  34 H34           -0.4937     5.9630     0.0388 H       
  35 H35           -2.0435     5.9468    -0.8365 H       
  36 H36           -3.2550     5.7018     1.3131 H       
  37 H37           -0.4699     5.9496     2.5371 H       
  38 H38           -2.0026     5.9238     3.4417 H       
  39 H39           -2.4943     3.6652     2.5442 H       
  40 H40           -0.9445     3.6814     3.4195 H       
  41 H41           -4.3871     7.7081     1.3343 H       
  42 H42           -4.4205    10.1702     1.3474 H       
  43 H43           -2.3050    11.4302     1.3344 H       
  44 H44           -0.1561    10.2282     1.3091 H       
  45 H45           -0.1227     7.7661     1.3007 H       
@<TRIPOS>BOND
   1    1    2 1
   2    1    7 1
   3    1    6 1
   4    1   20 1
   5    2    3 1
   6    2   21 1
   7    2   22 1
   8    3    4 1
   9    3   23 1
  10    3   24 1
  11    4    5 1
  12    4   25 1
  13    4   26 1
  14    5    6 1
  15    5   27 1
  16    5   28 1
  17    6    8 1
  18    6   29 1
  19    7   30 1
  20    8    9 1
  21    8   13 1
  22    8   31 1
  23    9   10 1
  24    9   32 1
  25    9   33 1
  26   10   11 1
  27   10   34 1
  28   10   35 1
  29   11   12 1
  30   11   14 1
  31   11   36 1
  32   12   13 1
  33   12   37 1
  34   12   38 1
  35   13   39 1
  36   13   40 1
  37   14   15 ar
  38   14   19 ar
  39   15   16 ar
  40   15   41 1
  41   16   17 ar
  42   16   42 1
  43   17   18 ar
  44   17   43 1
  45   18   19 ar
  46   18   44 1
  47   19   45 1

#	End of record

