#	Name: ASD01150080
#	Creating user name:	WinNT
#	Creation time:	15. 06. 2019 19:03

#	Modifying user name:	WinNT
#	Modification time:	15. 06. 2019 19:03

#	Program:	/corina/corina34_cracker 3.40 0067  02.08.2006

@<TRIPOS>MOLECULE
ASD01150080
  23   22    0    0    0
SMALL
NO_CHARGES


@<TRIPOS>ATOM
   1 C1            -0.0124     1.5047     0.0209 C.3     
   2 C2             0.0021    -0.0020    -0.0065 C.2     
   3 C3            -0.4654     2.0352    -1.3408 C.3     
   4 N4            -1.1641    -0.6945     0.0796 N.pl3   
   5 N5             1.1383    -0.6439    -0.1133 N.2     
   6 C6             2.2891     0.0438    -0.3105 C.1     
   7 N7             3.2538     0.6204    -0.4759 N.1     
   8 C8            -1.1500    -2.1592     0.0529 C.3     
   9 C9            -0.8993    -2.6926     1.4649 C.3     
  10 C10           -2.4989    -2.6731    -0.4544 C.3     
  11 H11           -0.7022     1.8474     0.7921 H       
  12 H12            0.9896     1.8738     0.2396 H       
  13 H13           -1.4295     1.5970    -1.5990 H       
  14 H14           -0.5599     3.1201    -1.2949 H       
  15 H15            0.2706     1.7664    -2.0986 H       
  16 H16           -2.0059    -0.2190     0.1587 H       
  17 H17           -0.3571    -2.5029    -0.6114 H       
  18 H18           -0.8888    -3.7824     1.4450 H       
  19 H19            0.0617    -2.3265     1.8263 H       
  20 H20           -1.6922    -2.3490     2.1292 H       
  21 H21           -2.6775    -2.2931    -1.4602 H       
  22 H22           -2.4883    -3.7629    -0.4742 H       
  23 H23           -3.2918    -2.3295     0.2100 H       
@<TRIPOS>BOND
   1    1    2 1
   2    1    3 1
   3    1   11 1
   4    1   12 1
   5    2    4 1
   6    2    5 2
   7    3   13 1
   8    3   14 1
   9    3   15 1
  10    4    8 1
  11    4   16 1
  12    5    6 1
  13    6    7 3
  14    8    9 1
  15    8   10 1
  16    8   17 1
  17    9   18 1
  18    9   19 1
  19    9   20 1
  20   10   21 1
  21   10   22 1
  22   10   23 1

#	End of record

