#	Name: ASD01916326
#	Creating user name:	WinNT
#	Creation time:	15. 06. 2019 20:07

#	Modifying user name:	WinNT
#	Modification time:	15. 06. 2019 20:07

#	Program:	/corina/corina34_cracker 3.40 0067  02.08.2006

@<TRIPOS>MOLECULE
ASD01916326
  43   44    0    0    0
SMALL
NO_CHARGES


@<TRIPOS>ATOM
   1 C1            -0.0167     1.3816     0.0096 C.ar    
   2 C2             0.0021    -0.0041     0.0020 C.ar    
   3 C3            -1.1829    -0.7185     0.0090 C.ar    
   4 C4            -2.3921    -0.0559     0.0237 C.ar    
   5 C5            -2.4204     1.3418     0.0319 C.ar    
   6 C6            -1.2210     2.0584     0.0305 C.ar    
   7 F7             1.1446     2.0719     0.0023 F       
   8 C8            -3.6730     2.0357     0.0472 C.1     
   9 C9            -4.6998     2.6047     0.0597 C.1     
  10 C10           -5.9523     3.2987     0.0749 C.ar    
  11 C11           -5.9888     4.6996     0.0832 C.ar    
  12 N12           -7.1345     5.3394     0.0972 N.ar    
  13 C13           -8.2965     4.6949     0.1035 C.ar    
  14 C14           -8.3425     3.3001     0.0959 C.ar    
  15 C15           -7.1601     2.5864     0.0758 C.ar    
  16 C16           -9.5585     5.4664     0.1193 C.2     
  17 O17          -10.6260     4.8852     0.1252 O.2     
  18 N18           -9.5246     6.8137     0.1271 N.am    
  19 C19          -10.7745     7.5778     0.1428 C.3     
  20 C20          -10.4573     9.0745     0.1490 C.3     
  21 C21          -11.7626     9.8724     0.1653 C.3     
  22 C22          -11.4494    11.3653     0.0459 C.3     
  23 C23          -12.6397     9.4396    -1.0113 C.3     
  24 O24          -12.4552     9.6277     1.3911 O.3     
  25 H25            0.9460    -0.5287    -0.0098 H       
  26 H26           -1.1607    -1.7983     0.0027 H       
  27 H27           -3.3157    -0.6157     0.0284 H       
  28 H28           -1.2353     3.1383     0.0372 H       
  29 H29           -5.0645     5.2584     0.0785 H       
  30 H30           -9.2916     2.7848     0.1015 H       
  31 H31           -7.1657     1.5064     0.0692 H       
  32 H32           -8.6727     7.2775     0.1224 H       
  33 H33          -11.3603     7.3342    -0.7436 H       
  34 H34          -11.3447     7.3235     1.0363 H       
  35 H35           -9.8715     9.3180     1.0354 H       
  36 H36           -9.8871     9.3288    -0.7445 H       
  37 H37          -10.9211    11.5520    -0.8891 H       
  38 H38          -12.3793    11.9337     0.0575 H       
  39 H39          -10.8245    11.6736     0.8841 H       
  40 H40          -12.8629     8.3761    -0.9262 H       
  41 H41          -13.5696    10.0081    -0.9996 H       
  42 H42          -12.1114     9.6263    -1.9462 H       
  43 H43          -13.2939    10.1025     1.4705 H       
@<TRIPOS>BOND
   1    1    2 ar
   2    1    7 1
   3    1    6 ar
   4    2    3 ar
   5    2   25 1
   6    3    4 ar
   7    3   26 1
   8    4    5 ar
   9    4   27 1
  10    5    6 ar
  11    5    8 1
  12    6   28 1
  13    8    9 3
  14    9   10 1
  15   10   11 ar
  16   10   15 ar
  17   11   12 ar
  18   11   29 1
  19   12   13 ar
  20   13   14 ar
  21   13   16 1
  22   14   15 ar
  23   14   30 1
  24   15   31 1
  25   16   17 2
  26   16   18 am
  27   18   19 1
  28   18   32 1
  29   19   20 1
  30   19   33 1
  31   19   34 1
  32   20   21 1
  33   20   35 1
  34   20   36 1
  35   21   22 1
  36   21   23 1
  37   21   24 1
  38   22   37 1
  39   22   38 1
  40   22   39 1
  41   23   40 1
  42   23   41 1
  43   23   42 1
  44   24   43 1

#	End of record

