#	Name: ASD01884918
#	Creating user name:	WinNT
#	Creation time:	15. 06. 2019 19:49

#	Modifying user name:	WinNT
#	Modification time:	15. 06. 2019 19:49

#	Program:	/corina/corina34_cracker 3.40 0067  02.08.2006

@<TRIPOS>MOLECULE
ASD01884918
  46   49    0    0    0
SMALL
NO_CHARGES


@<TRIPOS>ATOM
   1 C1             0.0200     1.4016     0.1563 C.ar    
   2 C2             0.0677     0.0224     0.1541 C.ar    
   3 C3            -1.1105    -0.7142     0.0254 C.ar    
   4 C4            -2.3322    -0.0536    -0.1005 C.ar    
   5 C5            -2.3736     1.3250    -0.0977 C.ar    
   6 C6            -1.2015     2.0562     0.0357 C.ar    
   7 C7            -1.0634    -2.1948     0.0221 C.2     
   8 C8            -1.6566    -2.9148     1.0435 C.2     
   9 C9            -0.4159    -2.8875    -1.0298 C.2     
  10 C10           -0.3750    -4.2328    -1.0315 C.2     
  11 N11           -0.9532    -4.9521    -0.0249 N.pl3   
  12 C12           -1.5954    -4.3194     1.0119 C.2     
  13 Cl13          -2.4637    -2.0970     2.3449 Cl      
  14 C14           -1.0638    -6.2854     0.2280 C.2     
  15 N15           -1.7264    -6.4205     1.3478 N.2     
  16 N16           -2.0462    -5.2670     1.8196 N.2     
  17 C17           -0.5222    -7.4021    -0.6269 C.3     
  18 O18           -1.2462     3.4144     0.0386 O.3     
  19 C19           -1.0521     4.0616    -1.1404 C.ar    
  20 C20           -0.7416     3.3485    -2.2941 C.ar    
  21 C21           -0.5527     4.0526    -3.4725 C.ar    
  22 C22           -0.6779     5.4290    -3.4637 C.ar    
  23 N23           -0.9729     6.0751    -2.3525 N.ar    
  24 C24           -1.1664     5.4428    -1.2123 C.ar    
  25 F25            1.1596     2.1164     0.2812 F       
  26 C26            0.9005    -7.7430    -0.1793 C.3     
  27 C27           -0.4740     6.2021    -4.7412 C.3     
  28 C28           -1.5013     6.2290     0.0290 C.3     
  29 H29            1.0155    -0.4861     0.2515 H       
  30 H30           -3.2455    -0.6213    -0.2006 H       
  31 H31           -3.3198     1.8363    -0.1956 H       
  32 H32            0.0465    -2.3342    -1.8338 H       
  33 H33            0.1210    -4.7501    -1.8394 H       
  34 H34           -1.1572    -8.2817    -0.5206 H       
  35 H35           -0.5092    -7.0872    -1.6703 H       
  36 H36           -0.6498     2.2727    -2.2716 H       
  37 H37           -0.3102     3.5319    -4.3871 H       
  38 H38            1.5355    -6.8634    -0.2855 H       
  39 H39            0.8875    -8.0578     0.8642 H       
  40 H40            1.2922    -8.5507    -0.7976 H       
  41 H41           -1.4259     6.2988    -5.2632 H       
  42 H42           -0.0852     7.1933    -4.5079 H       
  43 H43            0.2366     5.6733    -5.3764 H       
  44 H44           -2.5831     6.3342     0.1115 H       
  45 H45           -1.1193     5.7049     0.9051 H       
  46 H46           -1.0438     7.2164    -0.0319 H       
@<TRIPOS>BOND
   1    1    2 ar
   2    1   25 1
   3    1    6 ar
   4    2    3 ar
   5    2   29 1
   6    3    4 ar
   7    3    7 1
   8    4    5 ar
   9    4   30 1
  10    5    6 ar
  11    5   31 1
  12    6   18 1
  13    7    8 2
  14    7    9 1
  15    8   13 1
  16    8   12 1
  17    9   10 2
  18    9   32 1
  19   10   11 1
  20   10   33 1
  21   11   12 1
  22   11   14 1
  23   12   16 2
  24   14   15 2
  25   14   17 1
  26   15   16 1
  27   17   26 1
  28   17   34 1
  29   17   35 1
  30   18   19 1
  31   19   20 ar
  32   19   24 ar
  33   20   21 ar
  34   20   36 1
  35   21   22 ar
  36   21   37 1
  37   22   23 ar
  38   22   27 1
  39   23   24 ar
  40   24   28 1
  41   26   38 1
  42   26   39 1
  43   26   40 1
  44   27   41 1
  45   27   42 1
  46   27   43 1
  47   28   44 1
  48   28   45 1
  49   28   46 1

#	End of record

