#	Name: ASD04882055
#	Creating user name:	WinNT
#	Creation time:	15. 06. 2019 20:54

#	Modifying user name:	WinNT
#	Modification time:	15. 06. 2019 20:54

#	Program:	/corina/corina34_cracker 3.40 0067  02.08.2006

@<TRIPOS>MOLECULE
ASD04882055
  69   73    0    0    0
SMALL
NO_CHARGES


@<TRIPOS>ATOM
   1 N1            -0.1362     1.5550    -0.0364 N.am    
   2 C2            -0.0763     0.1554    -0.0458 C.ar    
   3 C3            -1.2526    -0.5955     0.0296 C.ar    
   4 C4            -1.1946    -1.9845     0.0209 C.ar    
   5 C5             0.0215    -2.6255    -0.0625 C.ar    
   6 C6             1.2017    -1.8806    -0.1381 C.ar    
   7 C7             1.1458    -0.4840    -0.1353 C.ar    
   8 N8            -2.4844     0.0484     0.1140 N.3     
   9 C9            -2.6118     0.7772     1.3837 C.3     
  10 C10           -3.5898    -0.9050    -0.0559 C.3     
  11 C11           -4.9200    -0.1483    -0.0362 C.3     
  12 N12           -5.0474     0.5805     1.2335 N.3     
  13 C13           -3.9420     1.5339     1.4033 C.3     
  14 C14           -6.2829     1.2264     1.3181 C.ar    
  15 C15           -6.6349     2.1820     0.3737 C.ar    
  16 C16           -7.8577     2.8185     0.4601 C.ar    
  17 C17           -8.7308     2.5056     1.4856 C.ar    
  18 C18           -8.3834     1.5545     2.4277 C.ar    
  19 C19           -7.1649     0.9103     2.3440 C.ar    
  20 C20           -6.7875    -0.1262     3.3708 C.3     
  21 C21            0.8455     2.2676     0.5510 C.2     
  22 O22            1.7295     1.6967     1.1625 O.2     
  23 C23            0.8484     3.7307     0.4533 C.2     
  24 O24           -0.0671     4.4841    -0.1904 O.3     
  25 C25            1.7751     4.5697     1.0030 C.2     
  26 C26            1.3897     5.8756     0.6618 C.2     
  27 C27            0.2571     5.7780    -0.0687 C.2     
  28 C28            2.5043    -2.5675    -0.2269 C.2     
  29 N29            2.5568    -3.9142    -0.2350 N.am    
  30 O30            3.5306    -1.9186    -0.2926 O.2     
  31 C31            3.8504    -4.5963    -0.3231 C.3     
  32 C32            3.7346    -5.9942     0.2910 C.3     
  33 C33            5.0713    -6.7241     0.1414 C.3     
  34 N34            5.4202    -6.8224    -1.2817 N.3     
  35 C35            5.5832    -5.4920    -1.8815 C.3     
  36 C36            4.2618    -4.7253    -1.7923 C.3     
  37 H37           -0.8822     2.0114    -0.4562 H       
  38 H38           -2.1052    -2.5622     0.0800 H       
  39 H39            0.0633    -3.7047    -0.0690 H       
  40 H40            2.0561     0.0942    -0.1940 H       
  41 H41           -2.5831     0.0706     2.2131 H       
  42 H42           -1.7890     1.4856     1.4805 H       
  43 H43           -3.4801    -1.4230    -1.0086 H       
  44 H44           -3.5722    -1.6307     0.7572 H       
  45 H45           -4.9487     0.5583    -0.8656 H       
  46 H46           -5.7428    -0.8567    -0.1330 H       
  47 H47           -4.0517     2.0519     2.3561 H       
  48 H48           -3.9596     2.2596     0.5903 H       
  49 H49           -5.9532     2.4273    -0.4272 H       
  50 H50           -8.1321     3.5616    -0.2740 H       
  51 H51           -9.6860     3.0053     1.5512 H       
  52 H52           -9.0675     1.3128     3.2277 H       
  53 H53           -7.1234    -1.1078     3.0365 H       
  54 H54           -5.7048    -0.1359     3.4962 H       
  55 H55           -7.2614     0.1154     4.3222 H       
  56 H56            2.6372     4.2839     1.5873 H       
  57 H57            1.9007     6.7872     0.9343 H       
  58 H58           -0.2955     6.6067    -0.4862 H       
  59 H59            1.7382    -4.4318    -0.1825 H       
  60 H60            4.6026    -4.0220     0.2177 H       
  61 H61            3.4835    -5.9076     1.3481 H       
  62 H62            2.9544    -6.5545    -0.2242 H       
  63 H63            5.8484    -6.1704     0.6684 H       
  64 H64            4.9880    -7.7250     0.5649 H       
  65 H65            6.2493    -7.3823    -1.4128 H       
  66 H66            6.3579    -4.9441    -1.3450 H       
  67 H67            5.8717    -5.5980    -2.9273 H       
  68 H68            3.4899    -5.2657    -2.3403 H       
  69 H69            4.3874    -3.7322    -2.2236 H       
@<TRIPOS>BOND
   1    1    2 1
   2    1   21 am
   3    1   37 1
   4    2    3 ar
   5    2    7 ar
   6    3    4 ar
   7    3    8 1
   8    4    5 ar
   9    4   38 1
  10    5    6 ar
  11    5   39 1
  12    6    7 ar
  13    6   28 1
  14    7   40 1
  15    8    9 1
  16    8   10 1
  17    9   13 1
  18    9   41 1
  19    9   42 1
  20   10   11 1
  21   10   43 1
  22   10   44 1
  23   11   12 1
  24   11   45 1
  25   11   46 1
  26   12   13 1
  27   12   14 1
  28   13   47 1
  29   13   48 1
  30   14   15 ar
  31   14   19 ar
  32   15   16 ar
  33   15   49 1
  34   16   17 ar
  35   16   50 1
  36   17   18 ar
  37   17   51 1
  38   18   19 ar
  39   18   52 1
  40   19   20 1
  41   20   53 1
  42   20   54 1
  43   20   55 1
  44   21   22 2
  45   21   23 1
  46   23   24 1
  47   23   25 2
  48   24   27 1
  49   25   26 1
  50   25   56 1
  51   26   27 2
  52   26   57 1
  53   27   58 1
  54   28   29 am
  55   28   30 2
  56   29   31 1
  57   29   59 1
  58   31   32 1
  59   31   36 1
  60   31   60 1
  61   32   33 1
  62   32   61 1
  63   32   62 1
  64   33   34 1
  65   33   63 1
  66   33   64 1
  67   34   35 1
  68   34   65 1
  69   35   36 1
  70   35   66 1
  71   35   67 1
  72   36   68 1
  73   36   69 1

#	End of record

