#	Name: ASD03090649
#	Creating user name:	WinNT
#	Creation time:	15. 06. 2019 20:29

#	Modifying user name:	WinNT
#	Modification time:	15. 06. 2019 20:29

#	Program:	/corina/corina34_cracker 3.40 0067  02.08.2006

@<TRIPOS>MOLECULE
ASD03090649
  32   33    0    0    0
SMALL
NO_CHARGES


@<TRIPOS>ATOM
   1 N1            -0.0162     1.3436     0.0094 N.am    
   2 C2            -0.0055     0.1390     0.6139 C.2     
   3 O3             1.0378    -0.3190     1.0383 O.2     
   4 N4            -1.1513    -0.5579     0.7480 N.am    
   5 S5            -2.5052    -2.8060     1.6190 S.3     
   6 C6            -1.1403    -1.8008     1.3717 C.2     
   7 N7            -0.0933    -2.3921     1.8630 N.2     
   8 N8            -0.2566    -3.5239     2.3981 N.2     
   9 C9            -1.4639    -3.9922     2.4065 C.2     
  10 C10           -1.9008    -5.3134     2.9852 C.3     
  11 F11           -0.8162    -5.9243     3.6236 F       
  12 F12           -2.9274    -5.1001     3.9114 F       
  13 F13           -2.3643    -6.1420     1.9577 F       
  14 C14            2.3994     1.4940     0.0035 C.ar    
  15 C15            1.1580     2.1069    -0.0530 C.ar    
  16 C16            1.0945     3.4981    -0.1737 C.ar    
  17 C17            2.2882     4.2093    -0.2320 C.ar    
  18 C18            3.4844     3.5225    -0.1693 C.ar    
  19 N19            3.5072     2.2083    -0.0553 N.ar    
  20 O20           -0.1018     4.1386    -0.2329 O.3     
  21 C21           -0.0703     5.5619    -0.3561 C.3     
  22 C22           -1.5012     6.1012    -0.4073 C.3     
  23 H23           -0.8354     1.6805    -0.3859 H       
  24 H24           -1.9837    -0.1925     0.4094 H       
  25 H25            2.4609     0.4202     0.1012 H       
  26 H26            2.2797     5.2852    -0.3256 H       
  27 H27            4.4149     4.0690    -0.2144 H       
  28 H28            0.4487     5.9894     0.5018 H       
  29 H29            0.4542     5.8359    -1.2715 H       
  30 H30           -2.0201     5.6737    -1.2652 H       
  31 H31           -2.0257     5.8273     0.5081 H       
  32 H32           -1.4771     7.1869    -0.5012 H       
@<TRIPOS>BOND
   1    1    2 am
   2    1   15 1
   3    1   23 1
   4    2    3 2
   5    2    4 am
   6    4    6 1
   7    4   24 1
   8    5    6 1
   9    5    9 1
  10    6    7 2
  11    7    8 1
  12    8    9 2
  13    9   10 1
  14   10   11 1
  15   10   12 1
  16   10   13 1
  17   14   15 ar
  18   14   19 ar
  19   14   25 1
  20   15   16 ar
  21   16   17 ar
  22   16   20 1
  23   17   18 ar
  24   17   26 1
  25   18   19 ar
  26   18   27 1
  27   20   21 1
  28   21   22 1
  29   21   28 1
  30   21   29 1
  31   22   30 1
  32   22   31 1
  33   22   32 1

#	End of record

