#	Name: ASD01530034
#	Creating user name:	WinNT
#	Creation time:	15. 06. 2019 19:22

#	Modifying user name:	WinNT
#	Modification time:	15. 06. 2019 19:22

#	Program:	/corina/corina34_cracker 3.40 0067  02.08.2006

@<TRIPOS>MOLECULE
ASD01530034
  31   33    0    0    0
SMALL
NO_CHARGES


@<TRIPOS>ATOM
   1 C1            -0.0198     1.4055    -0.0958 C.ar    
   2 C2            -0.0037     0.0045    -0.2085 C.ar    
   3 C3             1.1856    -0.6477    -0.3268 C.ar    
   4 C4             2.3897     0.0524    -0.3381 C.ar    
   5 C5             2.4107     1.4112    -0.2304 C.ar    
   6 C6             1.2063     2.1141    -0.1077 C.ar    
   7 C7             2.4322     4.3478     0.0072 C.2     
   8 O8             2.3892     5.6949     0.0032 O.3     
   9 O9             3.5035     3.7741     0.0087 O.2     
  10 C10           -1.2268     2.1153     0.0222 C.ar    
  11 C11           -1.2267     3.4720     0.1300 C.ar    
  12 C12           -0.0487     4.2069     0.1278 C.ar    
  13 C13            1.1806     3.5708     0.0100 C.ar    
  14 C14            3.6612     6.3950     0.0007 C.3     
  15 C15            3.4124     7.9047    -0.0037 C.3     
  16 C16            4.6316     8.8219     0.1114 C.3     
  17 C17            3.8921     8.6961    -1.2221 C.3     
  18 H18           -0.9295    -0.5515    -0.2009 H       
  19 H19            1.1955    -1.7242    -0.4129 H       
  20 H20            3.3195    -0.4887    -0.4331 H       
  21 H21            3.3511     1.9422    -0.2397 H       
  22 H22           -2.1641     1.5788     0.0271 H       
  23 H23           -2.1693     3.9915     0.2194 H       
  24 H24           -0.0886     5.2826     0.2146 H       
  25 H25            4.2276     6.1228     0.8914 H       
  26 H26            4.2270     6.1174    -0.8886 H       
  27 H27            2.4902     8.2306     0.4773 H       
  28 H28            4.5113     9.7514     0.6679 H       
  29 H29            5.6109     8.3499     0.1904 H       
  30 H30            4.3850     8.1413    -2.0205 H       
  31 H31            3.2854     9.5429    -1.5430 H       
@<TRIPOS>BOND
   1    1    2 ar
   2    1    6 ar
   3    1   10 ar
   4    2    3 ar
   5    2   18 1
   6    3    4 ar
   7    3   19 1
   8    4    5 ar
   9    4   20 1
  10    5    6 ar
  11    5   21 1
  12    6   13 ar
  13    7    8 1
  14    7    9 2
  15    7   13 1
  16    8   14 1
  17   10   11 ar
  18   10   22 1
  19   11   12 ar
  20   11   23 1
  21   12   13 ar
  22   12   24 1
  23   14   15 1
  24   14   25 1
  25   14   26 1
  26   15   16 1
  27   15   17 1
  28   15   27 1
  29   16   17 1
  30   16   28 1
  31   16   29 1
  32   17   30 1
  33   17   31 1

#	End of record

