#	Name: ASD08720004
#	Creating user name:	WinNT
#	Creation time:	15. 06. 2019 21:19

#	Modifying user name:	WinNT
#	Modification time:	15. 06. 2019 21:19

#	Program:	/corina/corina34_cracker 3.40 0067  02.08.2006

@<TRIPOS>MOLECULE
ASD08720004
  46   48    0    0    0
SMALL
NO_CHARGES


@<TRIPOS>ATOM
   1 C1            -0.0166     1.3748     0.0096 C.ar    
   2 C2             0.0021    -0.0041     0.0020 C.ar    
   3 C3            -1.1945    -0.7079     0.0097 C.ar    
   4 C4            -2.4150    -0.0120     0.0251 C.ar    
   5 C5            -2.4097     1.3855     0.0325 C.ar    
   6 C6            -1.2229     2.0618     0.0306 C.ar    
   7 N7            -1.5208    -2.0494     0.0056 N.pl3   
   8 C8            -2.8785    -2.1356     0.0181 C.2     
   9 N9            -3.4020    -0.9445     0.0295 N.2     
  10 C10           -3.6619    -3.4230     0.0186 C.3     
  11 C11           -4.6225    -3.4349     1.2094 C.3     
  12 C12           -5.6638    -2.3276     1.0358 C.3     
  13 C13           -5.3167    -4.7706     1.2814 C.ar    
  14 C14           -5.1781    -5.5619     2.4064 C.ar    
  15 C15           -5.8149    -6.7870     2.4724 C.ar    
  16 C16           -6.5907    -7.2207     1.4136 C.ar    
  17 C17           -6.7300    -6.4290     0.2890 C.ar    
  18 C18           -6.0967    -5.2019     0.2248 C.ar    
  19 C19           -7.2841    -8.5568     1.4851 C.3     
  20 I20            1.7873     2.4401    -0.0019 I       
  21 C21           -8.6746    -8.3776     2.0976 C.3     
  22 C22           -9.3786    -9.7340     2.1702 C.3     
  23 C23           -6.5338    -2.2590     2.2644 C.2     
  24 O24           -6.3408    -3.0179     3.1845 O.2     
  25 O25           -7.5232    -1.3547     2.3366 O.3     
  26 H26            0.9431    -0.5339    -0.0102 H       
  27 H27           -3.3424     1.9298     0.0443 H       
  28 H28           -1.2231     3.1417     0.0367 H       
  29 H29           -0.8976    -2.7926    -0.0047 H       
  30 H30           -4.2306    -3.5026    -0.9078 H       
  31 H31           -2.9754    -4.2660     0.0971 H       
  32 H32           -4.0628    -3.2663     2.1295 H       
  33 H33           -5.1583    -1.3722     0.8948 H       
  34 H34           -6.2821    -2.5436     0.1644 H       
  35 H35           -4.5720    -5.2230     3.2336 H       
  36 H36           -5.7060    -7.4055     3.3510 H       
  37 H37           -7.3358    -6.7680    -0.5384 H       
  38 H38           -6.2056    -4.5834    -0.6538 H       
  39 H39           -7.3798    -8.9707     0.4813 H       
  40 H40           -6.6992    -9.2370     2.1043 H       
  41 H41           -8.5789    -7.9637     3.1014 H       
  42 H42           -9.2595    -7.6974     1.4784 H       
  43 H43           -9.4743   -10.1479     1.1664 H       
  44 H44           -8.7938   -10.4142     2.7894 H       
  45 H45          -10.3693    -9.6064     2.6066 H       
  46 H46           -8.0545    -1.3488     3.1445 H       
@<TRIPOS>BOND
   1    1    2 ar
   2    1   20 1
   3    1    6 ar
   4    2    3 ar
   5    2   26 1
   6    3    4 ar
   7    3    7 1
   8    4    5 ar
   9    4    9 1
  10    5    6 ar
  11    5   27 1
  12    6   28 1
  13    7    8 1
  14    7   29 1
  15    8    9 2
  16    8   10 1
  17   10   11 1
  18   10   30 1
  19   10   31 1
  20   11   12 1
  21   11   13 1
  22   11   32 1
  23   12   23 1
  24   12   33 1
  25   12   34 1
  26   13   14 ar
  27   13   18 ar
  28   14   15 ar
  29   14   35 1
  30   15   16 ar
  31   15   36 1
  32   16   17 ar
  33   16   19 1
  34   17   18 ar
  35   17   37 1
  36   18   38 1
  37   19   21 1
  38   19   39 1
  39   19   40 1
  40   21   22 1
  41   21   41 1
  42   21   42 1
  43   22   43 1
  44   22   44 1
  45   22   45 1
  46   23   24 2
  47   23   25 1
  48   25   46 1

#	End of record

