#	Name: ASD01148772
#	Creating user name:	WinNT
#	Creation time:	15. 06. 2019 19:03

#	Modifying user name:	WinNT
#	Modification time:	15. 06. 2019 19:03

#	Program:	/corina/corina34_cracker 3.40 0067  02.08.2006

@<TRIPOS>MOLECULE
ASD01148772
  55   58    0    0    0
SMALL
NO_CHARGES


@<TRIPOS>ATOM
   1 N1             0.0239     1.3705    -0.2551 N.pl3   
   2 C2             0.0184     0.0063    -0.2149 C.2     
   3 C3             1.3052    -0.4147     0.1170 C.2     
   4 C4             2.0921     0.7517     0.2765 C.2     
   5 C5             1.2880     1.8220     0.0445 C.2     
   6 C6             1.7583    -1.8035     0.2721 C.2     
   7 O7             0.9767    -2.7200     0.1067 O.2     
   8 O8             3.0409    -2.0617     0.5979 O.3     
   9 C9            -1.1419    -0.8666    -0.4759 C.ar    
  10 C10           -1.0026    -1.9954    -1.2875 C.ar    
  11 C11           -2.0916    -2.8072    -1.5267 C.ar    
  12 C12           -3.3201    -2.5057    -0.9656 C.ar    
  13 C13           -3.4656    -1.3893    -0.1608 C.ar    
  14 C14           -2.3840    -0.5717     0.0919 C.ar    
  15 C15           -1.0780     2.1796    -0.5584 C.ar    
  16 C16           -1.6427     2.9832     0.4237 C.ar    
  17 C17           -2.7293     3.7799     0.1214 C.ar    
  18 C18           -3.2556     3.7779    -1.1576 C.ar    
  19 C19           -2.6961     2.9788    -2.1373 C.ar    
  20 C20           -1.6049     2.1845    -1.8430 C.ar    
  21 S21           -3.4463     4.7998     1.3666 S.o2    
  22 O22           -4.7956     4.9629     0.9518 O.2     
  23 O23           -3.1289     4.1408     2.5849 O.2     
  24 C24           -2.5469     6.3699     1.2391 C.3     
  25 C25            1.7036     3.2393     0.1043 C.ar    
  26 C26            2.8413     3.6061     0.8253 C.ar    
  27 C27            3.2241     4.9302     0.8774 C.ar    
  28 C28            2.4823     5.8948     0.2165 C.ar    
  29 C29            1.3528     5.5371    -0.5003 C.ar    
  30 C30            0.9633     4.2155    -0.5646 C.ar    
  31 Cl31           2.9701     7.5594     0.2873 Cl      
  32 C32            3.4182    -3.4572     0.7344 C.3     
  33 C33            4.8998    -3.5510     1.1045 C.3     
  34 H34            3.1401     0.7845     0.5353 H       
  35 H35           -0.0446    -2.2315    -1.7266 H       
  36 H36           -1.9854    -3.6800    -2.1538 H       
  37 H37           -4.1696    -3.1445    -1.1570 H       
  38 H38           -4.4274    -1.1600     0.2735 H       
  39 H39           -2.4980     0.2969     0.7236 H       
  40 H40           -1.2325     2.9847     1.4227 H       
  41 H41           -4.1057     4.4017    -1.3914 H       
  42 H42           -3.1098     2.9789    -3.1349 H       
  43 H43           -1.1651     1.5644    -2.6101 H       
  44 H44           -2.6847     6.7876     0.2418 H       
  45 H45           -2.9299     7.0694     1.9821 H       
  46 H46           -1.4856     6.1961     1.4167 H       
  47 H47            3.4204     2.8546     1.3414 H       
  48 H48            4.1039     5.2152     1.4352 H       
  49 H49            0.7783     6.2939    -1.0137 H       
  50 H50            0.0849     3.9370    -1.1279 H       
  51 H51            2.8181    -3.9209     1.5174 H       
  52 H52            3.2460    -3.9741    -0.2096 H       
  53 H53            5.1830    -4.5986     1.2070 H       
  54 H54            5.4999    -3.0873     0.3216 H       
  55 H55            5.0720    -3.0340     2.0485 H       
@<TRIPOS>BOND
   1    1    2 1
   2    1    5 1
   3    1   15 1
   4    2    3 2
   5    2    9 1
   6    3    4 1
   7    3    6 1
   8    4    5 2
   9    4   34 1
  10    5   25 1
  11    6    7 2
  12    6    8 1
  13    8   32 1
  14    9   10 ar
  15    9   14 ar
  16   10   11 ar
  17   10   35 1
  18   11   12 ar
  19   11   36 1
  20   12   13 ar
  21   12   37 1
  22   13   14 ar
  23   13   38 1
  24   14   39 1
  25   15   16 ar
  26   15   20 ar
  27   16   17 ar
  28   16   40 1
  29   17   18 ar
  30   17   21 1
  31   18   19 ar
  32   18   41 1
  33   19   20 ar
  34   19   42 1
  35   20   43 1
  36   21   22 2
  37   21   23 2
  38   21   24 1
  39   24   44 1
  40   24   45 1
  41   24   46 1
  42   25   26 ar
  43   25   30 ar
  44   26   27 ar
  45   26   47 1
  46   27   28 ar
  47   27   48 1
  48   28   29 ar
  49   28   31 1
  50   29   30 ar
  51   29   49 1
  52   30   50 1
  53   32   33 1
  54   32   51 1
  55   32   52 1
  56   33   53 1
  57   33   54 1
  58   33   55 1

#	End of record

