#	Name: ASD00241013
#	Creating user name:	WinNT
#	Creation time:	15. 06. 2019 18:33

#	Modifying user name:	WinNT
#	Modification time:	15. 06. 2019 18:33

#	Program:	/corina/corina34_cracker 3.40 0067  02.08.2006

@<TRIPOS>MOLECULE
ASD00241013
  47   49    0    0    0
SMALL
NO_CHARGES


@<TRIPOS>ATOM
   1 C1             0.1696     1.4189    -0.1175 C.3     
   2 C2             0.4665    -0.0924    -0.2401 C.3     
   3 C3            -0.1078    -0.4769    -1.6216 C.3     
   4 O4            -0.1164     0.7560    -2.3738 O.3     
   5 C5            -0.5491     1.7687    -1.4394 C.3     
   6 C6             0.7042    -2.8263    -2.0989 C.ar    
   7 C7             1.7092    -3.3594    -2.9233 C.ar    
   8 N8            -0.0360    -3.6522    -1.3663 N.ar    
   9 C9             0.1666    -4.9520    -1.4097 C.ar    
  10 N10            1.0989    -5.4992    -2.1685 N.ar    
  11 C11            1.8870    -4.7536    -2.9358 C.ar    
  12 N12            2.3052    -2.3174    -3.5511 N.2     
  13 C13            1.7436    -1.2057    -3.1736 C.2     
  14 N14            0.7530    -1.4665    -2.2743 N.pl3   
  15 C15           -0.1259     3.1567    -1.9246 C.3     
  16 N16           -0.7955     3.4556    -3.1976 N.3     
  17 C17           -2.2035     3.8136    -2.9804 C.3     
  18 C18           -2.9170     3.8728    -4.3065 C.2     
  19 C19           -3.9969     3.1573    -4.5018 C.2     
  20 O20            1.3854     2.1600     0.0027 O.3     
  21 F21           -0.1818    -0.8033     0.7755 F       
  22 N22            2.8609    -5.3361    -3.7278 N.pl3   
  23 C23           -4.7104     3.2165    -5.8279 C.3     
  24 N24           -4.8439     1.8590    -6.3731 N.3     
  25 C25           -0.0890     4.5168    -3.9275 C.3     
  26 H26           -0.4805     1.6124     0.7358 H       
  27 H27            1.5408    -0.2742    -0.2090 H       
  28 H28           -1.1211    -0.8645    -1.5168 H       
  29 H29           -1.6301     1.7255    -1.3066 H       
  30 H30           -0.4525    -5.5951    -0.8019 H       
  31 H31            2.0236    -0.2215    -3.5191 H       
  32 H32           -0.4080     3.9029    -1.1818 H       
  33 H33            0.9543     3.1775    -2.0686 H       
  34 H34           -2.6758     3.0627    -2.3469 H       
  35 H35           -2.2600     4.7872    -2.4937 H       
  36 H36           -2.5381     4.5051    -5.0958 H       
  37 H37           -4.3758     2.5250    -3.7125 H       
  38 H38            1.9070     1.9357     0.7855 H       
  39 H39            2.9744    -6.2994    -3.7271 H       
  40 H40            3.4300    -4.7811    -4.2836 H       
  41 H41           -5.7002     3.6511    -5.6888 H       
  42 H42           -4.1375     3.8319    -6.5215 H       
  43 H43           -5.3195     1.8718    -7.2629 H       
  44 H44           -3.9435     1.4103    -6.4509 H       
  45 H45            0.9572     4.2375    -4.0522 H       
  46 H46           -0.5483     4.6520    -4.9067 H       
  47 H47           -0.1518     5.4484    -3.3650 H       
@<TRIPOS>BOND
   1    1    2 1
   2    1   20 1
   3    1    5 1
   4    1   26 1
   5    2    3 1
   6    2   21 1
   7    2   27 1
   8    3    4 1
   9    3   14 1
  10    3   28 1
  11    4    5 1
  12    5   15 1
  13    5   29 1
  14    6    7 ar
  15    6    8 ar
  16    6   14 1
  17    7   12 1
  18    7   11 ar
  19    8    9 ar
  20    9   10 ar
  21    9   30 1
  22   10   11 ar
  23   11   22 1
  24   12   13 2
  25   13   14 1
  26   13   31 1
  27   15   16 1
  28   15   32 1
  29   15   33 1
  30   16   17 1
  31   16   25 1
  32   17   18 1
  33   17   34 1
  34   17   35 1
  35   18   19 2
  36   18   36 1
  37   19   23 1
  38   19   37 1
  39   20   38 1
  40   22   39 1
  41   22   40 1
  42   23   24 1
  43   23   41 1
  44   23   42 1
  45   24   43 1
  46   24   44 1
  47   25   45 1
  48   25   46 1
  49   25   47 1

#	End of record

