#	Name: ASD03330662
#	Creating user name:	WinNT
#	Creation time:	15. 06. 2019 20:37

#	Modifying user name:	WinNT
#	Modification time:	15. 06. 2019 20:37

#	Program:	/corina/corina34_cracker 3.40 0067  02.08.2006

@<TRIPOS>MOLECULE
ASD03330662
  59   61    0    0    0
SMALL
NO_CHARGES


@<TRIPOS>ATOM
   1 C1            -0.0733     2.0103     1.7959 C.2     
   2 N2            -0.1651     0.7261     2.2124 N.pl3   
   3 C3             1.2032     2.2008     1.3579 C.2     
   4 N4             1.8642     1.0318     1.4960 N.2     
   5 C5             1.0482     0.1381     2.0035 C.2     
   6 C6             1.3872    -1.2712     2.2995 C.ar    
   7 C7             1.7617     3.4577     0.8284 C.2     
   8 O8             1.0623     4.4497     0.7527 O.2     
   9 C9             3.6029     4.7570    -0.0984 C.3     
  10 N10            3.0477     3.5077     0.4280 N.am    
  11 C11            3.2869     4.8665    -1.5914 C.3     
  12 C12            1.7750     4.7616    -1.8018 C.3     
  13 C13            3.7832     6.2136    -2.1204 C.3     
  14 C14            3.9865     3.7336    -2.3452 C.3     
  15 C15            5.0966     4.7662     0.1009 C.2     
  16 N16            5.7869     5.9163    -0.0303 N.am    
  17 O17            5.6776     3.7386     0.3793 O.2     
  18 C18            7.2470     5.9121     0.0903 C.3     
  19 C19           -1.3580     0.1040     2.7936 C.3     
  20 C20           -2.5759     0.4479     1.9306 C.3     
  21 C21           -3.1794     1.7698     2.3948 C.3     
  22 N22           -2.1393     2.6819     2.8753 N.3     
  23 C23           -1.1906     3.0212     1.8045 C.3     
  24 C24           -2.7303     3.8937     3.4586 C.3     
  25 C25            2.0723    -2.0586     1.3651 C.ar    
  26 C26            2.3686    -3.3709     1.6848 C.ar    
  27 N27            2.0146    -3.8799     2.8488 N.ar    
  28 C28            1.3686    -3.1721     3.7556 C.ar    
  29 C29            1.0376    -1.8534     3.5229 C.ar    
  30 F30            2.4374    -1.5442     0.1704 F       
  31 H31            3.1607     5.6020     0.4294 H       
  32 H32            3.6056     2.7164     0.4883 H       
  33 H33            1.2767     5.5687    -1.2648 H       
  34 H34            1.5499     4.8395    -2.8654 H       
  35 H35            1.4215     3.8018    -1.4249 H       
  36 H36            4.8288     6.3495    -1.8441 H       
  37 H37            3.6885     6.2349    -3.2060 H       
  38 H38            3.1858     7.0162    -1.6878 H       
  39 H39            3.6329     2.7738    -1.9684 H       
  40 H40            3.7613     3.8116    -3.4088 H       
  41 H41            5.0635     3.8083    -2.1953 H       
  42 H42            5.3170     6.7468    -0.2045 H       
  43 H43            7.5289     5.5469     1.0778 H       
  44 H44            7.6727     5.2610    -0.6732 H       
  45 H45            7.6255     6.9254    -0.0441 H       
  46 H46           -1.2267    -0.9777     2.8237 H       
  47 H47           -1.5098     0.4816     3.8048 H       
  48 H48           -2.2686     0.5358     0.8885 H       
  49 H49           -3.3205    -0.3428     2.0228 H       
  50 H50           -3.7062     2.2349     1.5616 H       
  51 H51           -3.8867     1.5767     3.2014 H       
  52 H52           -0.7809     4.0155     1.9823 H       
  53 H53           -1.7046     3.0044     0.8435 H       
  54 H54           -3.3690     3.6187     4.2979 H       
  55 H55           -1.9360     4.5536     3.8075 H       
  56 H56           -3.3244     4.4080     2.7032 H       
  57 H57            2.8965    -3.9871     0.9720 H       
  58 H58            1.0987    -3.6307     4.6954 H       
  59 H59            0.5089    -1.2810     4.2708 H       
@<TRIPOS>BOND
   1    1    2 1
   2    1    3 2
   3    1   23 1
   4    2   19 1
   5    2    5 1
   6    3    4 1
   7    3    7 1
   8    4    5 2
   9    5    6 1
  10    6   25 ar
  11    6   29 ar
  12    7    8 2
  13    7   10 am
  14    9   10 1
  15    9   11 1
  16    9   15 1
  17    9   31 1
  18   10   32 1
  19   11   12 1
  20   11   13 1
  21   11   14 1
  22   12   33 1
  23   12   34 1
  24   12   35 1
  25   13   36 1
  26   13   37 1
  27   13   38 1
  28   14   39 1
  29   14   40 1
  30   14   41 1
  31   15   16 am
  32   15   17 2
  33   16   18 1
  34   16   42 1
  35   18   43 1
  36   18   44 1
  37   18   45 1
  38   19   20 1
  39   19   46 1
  40   19   47 1
  41   20   21 1
  42   20   48 1
  43   20   49 1
  44   21   22 1
  45   21   50 1
  46   21   51 1
  47   22   23 1
  48   22   24 1
  49   23   52 1
  50   23   53 1
  51   24   54 1
  52   24   55 1
  53   24   56 1
  54   25   26 ar
  55   25   30 1
  56   26   27 ar
  57   26   57 1
  58   27   28 ar
  59   28   29 ar
  60   28   58 1
  61   29   59 1

#	End of record

