#	Name: ASD01030013
#	Creating user name:	WinNT
#	Creation time:	15. 06. 2019 18:58

#	Modifying user name:	WinNT
#	Modification time:	15. 06. 2019 18:58

#	Program:	/corina/corina34_cracker 3.40 0067  02.08.2006

@<TRIPOS>MOLECULE
ASD01030013
  28   27    0    0    0
SMALL
NO_CHARGES


@<TRIPOS>ATOM
   1 O1             0.0021    -0.0041     0.0020 O.2     
   2 C2            -0.0143     1.2034     0.0087 C.2     
   3 C3             1.2804     1.9746     0.0004 C.3     
   4 O4             2.3790     1.0609    -0.0150 O.3     
   5 C5             1.3614     2.8485     1.2537 C.3     
   6 O6             1.1913     2.0331     2.4148 O.3     
   7 C7             2.7273     3.5357     1.3088 C.3     
   8 O8             2.8975     4.3511     0.1476 O.3     
   9 C9             2.8083     4.4096     2.5620 C.3     
  10 O10            1.7098     5.3234     2.5774 O.3     
  11 C11            4.1228     5.1926     2.5537 C.3     
  12 S12            5.5309     6.7384     3.8786 S.o2    
  13 O13            5.5923     7.2233     5.2129 O.2     
  14 O14            6.5583     5.9536     3.2888 O.2     
  15 O15            4.2524     5.9190     3.7774 O.3     
  16 O16            5.3559     7.9584     2.9856 O.3     
  17 H17           -0.9568     1.7306     0.0160 H       
  18 H18            1.3211     2.6067    -0.8866 H       
  19 H19            2.4062     0.4657     0.7467 H       
  20 H20            0.5759     3.6035     1.2216 H       
  21 H21            1.8569     1.3379     2.5082 H       
  22 H22            3.5129     2.7807     1.3409 H       
  23 H23            2.2319     5.0463     0.0542 H       
  24 H24            2.7676     3.7775     3.4490 H       
  25 H25            1.6825     5.9186     1.8158 H       
  26 H26            4.9579     4.4995     2.4524 H       
  27 H27            4.1253     5.8894     1.7155 H       
  28 H28            6.1191     8.5522     2.9769 H       
@<TRIPOS>BOND
   1    1    2 2
   2    2    3 1
   3    2   17 1
   4    3    4 1
   5    3    5 1
   6    3   18 1
   7    4   19 1
   8    5    6 1
   9    5    7 1
  10    5   20 1
  11    6   21 1
  12    7    8 1
  13    7    9 1
  14    7   22 1
  15    8   23 1
  16    9   10 1
  17    9   11 1
  18    9   24 1
  19   10   25 1
  20   11   15 1
  21   11   26 1
  22   11   27 1
  23   12   13 2
  24   12   14 2
  25   12   15 1
  26   12   16 1
  27   16   28 1

#	End of record

