#	Name: ASD01920059
#	Creating user name:	WinNT
#	Creation time:	15. 06. 2019 20:11

#	Modifying user name:	WinNT
#	Modification time:	15. 06. 2019 20:11

#	Program:	/corina/corina34_cracker 3.40 0067  02.08.2006

@<TRIPOS>MOLECULE
ASD01920059
  35   37    0    0    0
SMALL
NO_CHARGES


@<TRIPOS>ATOM
   1 C1            -0.0084     1.3009     0.0264 C.ar    
   2 N2            -0.0703     0.1162    -0.5482 N.ar    
   3 C3             0.9743    -0.4313    -1.1369 C.ar    
   4 C4             2.1904     0.2228    -1.1756 C.ar    
   5 C5             2.3020     1.4824    -0.5784 C.ar    
   6 C6             1.1682     2.0247     0.0346 C.ar    
   7 C7             3.5855     2.2212    -0.5944 C.2     
   8 O8             4.5607     1.7338    -1.1316 O.2     
   9 N9             3.6722     3.4341    -0.0131 N.am    
  10 C10            4.9097     4.0831     0.0714 C.ar    
  11 C11            4.9776     5.4663    -0.0352 C.ar    
  12 C12            6.0692     3.3446     0.2674 C.ar    
  13 C13            7.2903     3.9860     0.3512 C.ar    
  14 C14            7.3573     5.3682     0.2392 C.ar    
  15 C15            6.1982     6.1062     0.0482 C.ar    
  16 O16            8.5589     5.9993     0.3221 O.3     
  17 Cl17           8.7403     3.0636     0.5969 Cl      
  18 C18            9.3462     6.0180    -0.7829 C.ar    
  19 C19           10.6228     6.5599    -0.7084 C.ar    
  20 C20           11.4163     6.5731    -1.8425 C.ar    
  21 C21           10.9012     6.0408    -3.0173 C.ar    
  22 C22            9.6218     5.5180    -3.0182 C.ar    
  23 N23            8.8921     5.5151    -1.9190 N.ar    
  24 Cl24          11.8536     6.0326    -4.4687 Cl      
  25 H25           -0.8906     1.7133     0.4932 H       
  26 H26            0.8782    -1.4046    -1.5950 H       
  27 H27            3.0422    -0.2318    -1.6593 H       
  28 H28            1.2117     2.9949     0.5069 H       
  29 H29            2.8770     3.8574     0.3467 H       
  30 H30            4.0755     6.0413    -0.1836 H       
  31 H31            6.0166     2.2694     0.3548 H       
  32 H32            6.2511     7.1813    -0.0392 H       
  33 H33           10.9915     6.9658     0.2220 H       
  34 H34           12.4129     6.9882    -1.8145 H       
  35 H35            9.2160     5.1027    -3.9288 H       
@<TRIPOS>BOND
   1    1    2 ar
   2    1    6 ar
   3    1   25 1
   4    2    3 ar
   5    3    4 ar
   6    3   26 1
   7    4    5 ar
   8    4   27 1
   9    5    6 ar
  10    5    7 1
  11    6   28 1
  12    7    8 2
  13    7    9 am
  14    9   10 1
  15    9   29 1
  16   10   11 ar
  17   10   12 ar
  18   11   15 ar
  19   11   30 1
  20   12   13 ar
  21   12   31 1
  22   13   14 ar
  23   13   17 1
  24   14   15 ar
  25   14   16 1
  26   15   32 1
  27   16   18 1
  28   18   19 ar
  29   18   23 ar
  30   19   20 ar
  31   19   33 1
  32   20   21 ar
  33   20   34 1
  34   21   22 ar
  35   21   24 1
  36   22   23 ar
  37   22   35 1

#	End of record

