#	Name: ASD09200027
#	Creating user name:	WinNT
#	Creation time:	15. 06. 2019 21:21

#	Modifying user name:	WinNT
#	Modification time:	15. 06. 2019 21:21

#	Program:	/corina/corina34_cracker 3.40 0067  02.08.2006

@<TRIPOS>MOLECULE
ASD09200027
  46   49    0    0    0
SMALL
NO_CHARGES


@<TRIPOS>ATOM
   1 N1            -0.0162     1.3436     0.0094 N.am    
   2 C2             0.0021    -0.0041     0.0020 C.2     
   3 S3            -1.2498    -0.9384     0.0084 S.o     
   4 C4            -0.3933    -2.4912    -0.0089 C.2     
   5 C5             0.9141    -2.1355    -0.0192 C.2     
   6 N6             1.0958    -0.7749    -0.0180 N.am    
   7 C7             2.0224    -3.1054    -0.0354 C.ar    
   8 C8             1.7461    -4.4764    -0.0413 C.ar    
   9 C9             2.8068    -5.3916    -0.0572 C.ar    
  10 C10            4.1421    -4.9133    -0.0671 C.ar    
  11 C11            4.3883    -3.5235    -0.0607 C.ar    
  12 C12            3.3511    -2.6477    -0.0507 C.ar    
  13 C13            2.5674    -6.7794    -0.0631 C.ar    
  14 C14            3.6196    -7.6489    -0.0782 C.ar    
  15 C15            4.9295    -7.1840    -0.0879 C.ar    
  16 C16            5.1998    -5.8319    -0.0825 C.ar    
  17 C17            1.2377     2.1093     0.0016 C.3     
  18 C18            1.1992     3.1065    -1.1607 C.3     
  19 C19           -0.0617     3.9665    -1.0481 C.3     
  20 C20           -1.3006     3.0725    -1.1375 C.3     
  21 C21           -1.2905     2.0749     0.0193 C.3     
  22 C22           -2.5607     3.9366    -1.0578 C.3     
  23 N23           -2.6286     4.8131    -2.2347 N.3     
  24 H24           -1.6879    -0.8486     1.2769 H       
  25 H25           -0.8144    -3.4857    -0.0104 H       
  26 H26            1.9845    -0.3864    -0.0247 H       
  27 H27            0.7244    -4.8264    -0.0334 H       
  28 H28            5.4039    -3.1560    -0.0681 H       
  29 H29            3.5495    -1.5861    -0.0459 H       
  30 H30            1.5547    -7.1546    -0.0553 H       
  31 H31            3.4317    -8.7124    -0.0824 H       
  32 H32            5.7460    -7.8908    -0.0995 H       
  33 H33            6.2218    -5.4827    -0.0905 H       
  34 H34            1.3422     2.6490     0.9428 H       
  35 H35            2.0801     1.4297    -0.1278 H       
  36 H36            2.0807     3.7463    -1.1204 H       
  37 H37            1.1861     2.5635    -2.1057 H       
  38 H38           -0.0600     4.4901    -0.0921 H       
  39 H39           -0.0791     4.6934    -1.8601 H       
  40 H40           -1.2902     2.5298    -2.0827 H       
  41 H41           -2.1167     1.3733    -0.0959 H       
  42 H42           -1.3914     2.6095     0.9638 H       
  43 H43           -3.4409     3.2941    -1.0321 H       
  44 H44           -2.5280     4.5444    -0.1536 H       
  45 H45           -2.5951     4.2758    -3.0881 H       
  46 H46           -3.4528     5.3944    -2.2056 H       
@<TRIPOS>BOND
   1    1    2 am
   2    1   17 1
   3    1   21 1
   4    2    3 2
   5    2    6 am
   6    3    4 1
   7    3   24 1
   8    4    5 2
   9    4   25 1
  10    5    6 1
  11    5    7 1
  12    6   26 1
  13    7    8 ar
  14    7   12 ar
  15    8    9 ar
  16    8   27 1
  17    9   10 ar
  18    9   13 ar
  19   10   11 ar
  20   10   16 ar
  21   11   12 ar
  22   11   28 1
  23   12   29 1
  24   13   14 ar
  25   13   30 1
  26   14   15 ar
  27   14   31 1
  28   15   16 ar
  29   15   32 1
  30   16   33 1
  31   17   18 1
  32   17   34 1
  33   17   35 1
  34   18   19 1
  35   18   36 1
  36   18   37 1
  37   19   20 1
  38   19   38 1
  39   19   39 1
  40   20   21 1
  41   20   22 1
  42   20   40 1
  43   21   41 1
  44   21   42 1
  45   22   23 1
  46   22   43 1
  47   22   44 1
  48   23   45 1
  49   23   46 1

#	End of record

