#	Name: ASD01150256
#	Creating user name:	WinNT
#	Creation time:	15. 06. 2019 19:03

#	Modifying user name:	WinNT
#	Modification time:	15. 06. 2019 19:03

#	Program:	/corina/corina34_cracker 3.40 0067  02.08.2006

@<TRIPOS>MOLECULE
ASD01150256
  59   63    0    0    0
SMALL
NO_CHARGES


@<TRIPOS>ATOM
   1 C1            -0.0169     1.3951     0.0097 C.ar    
   2 C2             0.0021    -0.0041     0.0020 C.ar    
   3 C3            -1.1542    -0.7193     0.0087 C.ar    
   4 C4            -2.3928    -0.0535     0.0236 C.ar    
   5 C5            -2.4171     1.3625     0.0320 C.ar    
   6 C6            -1.2146     2.0790     0.0305 C.ar    
   7 N7            -3.5403    -0.7406     0.0295 N.ar    
   8 C8            -4.7058    -0.1397     0.0430 C.ar    
   9 C9            -4.8181     1.2456     0.0520 C.ar    
  10 C10           -3.6703     2.0270     0.0471 C.ar    
  11 C11           -3.7517     3.5054     0.0568 C.ar    
  12 C12           -6.1775     1.8958     0.0669 C.3     
  13 C13           -5.9599    -0.9754     0.0483 C.3     
  14 C14           -3.2718     4.2256     1.1510 C.ar    
  15 C15           -3.3495     5.6026     1.1551 C.ar    
  16 C16           -3.9037     6.2708     0.0748 C.ar    
  17 C17           -4.3823     5.5599    -1.0144 C.ar    
  18 C18           -4.3034     4.1831    -1.0307 C.ar    
  19 F19           -3.9780     7.6198     0.0836 F       
  20 O20           -6.5961     2.0934     1.4189 O.3     
  21 N21            1.1859     2.1043     0.0020 N.3     
  22 C22            2.3355     1.1908    -0.0138 C.3     
  23 C23            3.6272     1.9967    -0.1686 C.3     
  24 C24            3.7508     2.9823     0.9967 C.3     
  25 C25            2.5181     3.8904     1.0198 C.3     
  26 C26            1.2586     3.0295     1.1401 C.3     
  27 C27           -7.8102     2.6738     1.6104 C.ar    
  28 C28           -8.2788     2.8954     2.8971 C.ar    
  29 C29           -9.5128     3.4858     3.0897 C.ar    
  30 C30          -10.2813     3.8559     2.0002 C.ar    
  31 C31           -9.8156     3.6356     0.7160 C.ar    
  32 C32           -8.5798     3.0503     0.5194 C.ar    
  33 Cl33         -11.8319     4.5972     2.2447 Cl      
  34 H34            0.9490    -0.5234    -0.0098 H       
  35 H35           -1.1215    -1.7988     0.0023 H       
  36 H36           -1.2246     3.1589     0.0369 H       
  37 H37           -6.1255     2.8584    -0.4417 H       
  38 H38           -6.8935     1.2527    -0.4448 H       
  39 H39           -6.2536    -1.1832     1.0772 H       
  40 H40           -6.7600    -0.4331    -0.4555 H       
  41 H41           -5.7730    -1.9143    -0.4729 H       
  42 H42           -2.8404     3.7057     1.9936 H       
  43 H43           -2.9782     6.1610     2.0017 H       
  44 H44           -4.8136     6.0852    -1.8537 H       
  45 H45           -4.6764     3.6300    -1.8801 H       
  46 H46            2.3669     0.6303     0.9205 H       
  47 H47            2.2373     0.4980    -0.8496 H       
  48 H48            4.4813     1.3196    -0.1647 H       
  49 H49            3.6024     2.5467    -1.1093 H       
  50 H50            3.8147     2.4310     1.9348 H       
  51 H51            4.6474     3.5885     0.8675 H       
  52 H52            2.5799     4.5661     1.8728 H       
  53 H53            2.4759     4.4702     0.0978 H       
  54 H54            0.3782     3.6722     1.1425 H       
  55 H55            1.2950     2.4604     2.0690 H       
  56 H56           -7.6795     2.6064     3.7477 H       
  57 H57           -9.8781     3.6583     4.0913 H       
  58 H58          -10.4168     3.9252    -0.1332 H       
  59 H59           -8.2166     2.8785    -0.4831 H       
@<TRIPOS>BOND
   1    1    2 ar
   2    1   21 1
   3    1    6 ar
   4    2    3 ar
   5    2   34 1
   6    3    4 ar
   7    3   35 1
   8    4    5 ar
   9    4    7 ar
  10    5    6 ar
  11    5   10 ar
  12    6   36 1
  13    7    8 ar
  14    8    9 ar
  15    8   13 1
  16    9   10 ar
  17    9   12 1
  18   10   11 1
  19   11   14 ar
  20   11   18 ar
  21   12   20 1
  22   12   37 1
  23   12   38 1
  24   13   39 1
  25   13   40 1
  26   13   41 1
  27   14   15 ar
  28   14   42 1
  29   15   16 ar
  30   15   43 1
  31   16   17 ar
  32   16   19 1
  33   17   18 ar
  34   17   44 1
  35   18   45 1
  36   20   27 1
  37   21   22 1
  38   21   26 1
  39   22   23 1
  40   22   46 1
  41   22   47 1
  42   23   24 1
  43   23   48 1
  44   23   49 1
  45   24   25 1
  46   24   50 1
  47   24   51 1
  48   25   26 1
  49   25   52 1
  50   25   53 1
  51   26   54 1
  52   26   55 1
  53   27   28 ar
  54   27   32 ar
  55   28   29 ar
  56   28   56 1
  57   29   30 ar
  58   29   57 1
  59   30   31 ar
  60   30   33 1
  61   31   32 ar
  62   31   58 1
  63   32   59 1

#	End of record

