#	Name: ASD02508133
#	Creating user name:	WinNT
#	Creation time:	15. 06. 2019 20:23

#	Modifying user name:	WinNT
#	Modification time:	15. 06. 2019 20:23

#	Program:	/corina/corina34_cracker 3.40 0067  02.08.2006

@<TRIPOS>MOLECULE
ASD02508133
  33   35    0    0    0
SMALL
NO_CHARGES


@<TRIPOS>ATOM
   1 C1             0.7185     1.4628    -0.0490 C.ar    
   2 C2             0.4966     0.0798     0.0397 C.ar    
   3 C3             2.0110     1.8901    -0.3550 C.ar    
   4 C4             3.0404     0.9899    -0.5641 C.ar    
   5 C5             2.7984    -0.3669    -0.4712 C.ar    
   6 C6             1.5227    -0.8115    -0.1687 C.ar    
   7 N7            -0.1969     2.4850     0.1254 N.am    
   8 C8             0.2207     3.7480    -0.0042 C.2     
   9 S9             1.9472     3.6576    -0.3904 S.3     
  10 S10            1.2100    -2.5414    -0.0487 S.o2    
  11 N11            1.3303    -2.9514     1.5512 N.am    
  12 C12            2.5401    -2.7741     2.2293 C.ar    
  13 O13           -0.4503     4.7564     0.1155 O.2     
  14 C14           -1.5957     2.1894     0.4452 C.3     
  15 O15           -0.1515    -2.7291    -0.4098 O.2     
  16 O16            2.2864    -3.1906    -0.7114 O.2     
  17 C17            2.5527    -2.1840     3.4864 C.ar    
  18 C18            3.7303    -3.1930     1.6492 C.ar    
  19 C19            4.9242    -3.0173     2.3211 C.ar    
  20 C20            4.9349    -2.4244     3.5723 C.ar    
  21 C21            3.7489    -2.0103     4.1547 C.ar    
  22 F22            6.1038    -2.2543     4.2281 F       
  23 H23           -0.4911    -0.2884     0.2747 H       
  24 H24            4.0318     1.3474    -0.8001 H       
  25 H25            3.5977    -1.0750    -0.6332 H       
  26 H26            0.5614    -3.3146     2.0179 H       
  27 H27           -1.7194     2.1448     1.5273 H       
  28 H28           -2.2349     2.9730     0.0384 H       
  29 H29           -1.8735     1.2304     0.0080 H       
  30 H30            1.6278    -1.8609     3.9410 H       
  31 H31            3.7224    -3.6562     0.6736 H       
  32 H32            5.8501    -3.3429     1.8703 H       
  33 H33            3.7596    -1.5481     5.1307 H       
@<TRIPOS>BOND
   1    1    2 ar
   2    1    3 ar
   3    1    7 1
   4    2    6 ar
   5    2   23 1
   6    3    4 ar
   7    3    9 1
   8    4    5 ar
   9    4   24 1
  10    5    6 ar
  11    5   25 1
  12    6   10 1
  13    7    8 am
  14    7   14 1
  15    8    9 1
  16    8   13 2
  17   10   11 am
  18   10   15 2
  19   10   16 2
  20   11   12 1
  21   11   26 1
  22   12   17 ar
  23   12   18 ar
  24   14   27 1
  25   14   28 1
  26   14   29 1
  27   17   21 ar
  28   17   30 1
  29   18   19 ar
  30   18   31 1
  31   19   20 ar
  32   19   32 1
  33   20   21 ar
  34   20   22 1
  35   21   33 1

#	End of record

