#	Name: ASD03540150
#	Creating user name:	WinNT
#	Creation time:	15. 06. 2019 20:42

#	Modifying user name:	WinNT
#	Modification time:	15. 06. 2019 20:42

#	Program:	/corina/corina34_cracker 3.40 0067  02.08.2006

@<TRIPOS>MOLECULE
ASD03540150
  52   56    0    0    0
SMALL
NO_CHARGES


@<TRIPOS>ATOM
   1 N1            -0.0164     1.3603     0.0095 N.pl3   
   2 C2             0.0021    -0.0041     0.0020 C.2     
   3 N3             1.1905    -0.7094    -0.0139 N.am    
   4 C4             2.3780    -0.0689    -0.0219 C.2     
   5 C5             2.3915     1.4058    -0.0141 C.ar    
   6 C6             3.5878     2.1158    -0.0214 C.ar    
   7 C7             3.5592     3.5078    -0.0133 C.ar    
   8 C8             2.3340     4.1827     0.0021 C.ar    
   9 C9             1.1496     3.4794     0.0094 C.ar    
  10 C10            1.1645     2.0913     0.0022 C.ar    
  11 N11           -2.0330     0.6195     0.0260 N.2     
  12 N12           -1.2515    -0.4007     0.0126 N.2     
  13 C13           -1.3334     1.7205     0.0296 C.2     
  14 O14            3.4196    -0.6970    -0.0351 O.2     
  15 C15            4.7844     4.2489    -0.0202 C.1     
  16 C16            5.7890     4.8565    -0.0259 C.1     
  17 C17            7.0485     5.6184    -0.0331 C.3     
  18 C18            6.7431     7.0940    -0.0220 C.ar    
  19 C19            6.6140     7.7631     1.1811 C.ar    
  20 C20            6.3341     9.1158     1.1940 C.ar    
  21 C21            6.1824     9.8030    -0.0016 C.ar    
  22 C22            6.3123     9.1293    -1.2075 C.ar    
  23 C23            6.5979     7.7777    -1.2150 C.ar    
  24 C24            1.1605    -2.1741    -0.0215 C.3     
  25 C25            1.1358    -2.6686    -1.4449 C.ar    
  26 C26            2.3213    -2.9199    -2.1100 C.ar    
  27 C27            2.2987    -3.3734    -3.4156 C.ar    
  28 C28            1.0905    -3.5761    -4.0560 C.ar    
  29 C29           -0.0950    -3.3256    -3.3907 C.ar    
  30 C30           -0.0724    -2.8763    -2.0836 C.ar    
  31 O31            5.9065    11.1336     0.0084 O.3     
  32 C32            5.7635    11.7761    -1.2600 C.3     
  33 H33            4.5318     1.5912    -0.0329 H       
  34 H34            2.3166     5.2625     0.0086 H       
  35 H35            0.2083     4.0086     0.0216 H       
  36 H36           -1.7227     2.7278     0.0402 H       
  37 H37            7.6333     5.3617     0.8502 H       
  38 H38            7.6172     5.3717    -0.9296 H       
  39 H39            6.7319     7.2276     2.1116 H       
  40 H40            6.2331     9.6379     2.1340 H       
  41 H41            6.1946     9.6621    -2.1395 H       
  42 H42            6.7039     7.2539    -2.1534 H       
  43 H43            2.0480    -2.5584     0.4812 H       
  44 H44            0.2685    -2.5220     0.4994 H       
  45 H45            3.2652    -2.7615    -1.6096 H       
  46 H46            3.2249    -3.5691    -3.9354 H       
  47 H47            1.0728    -3.9297    -5.0763 H       
  48 H48           -1.0389    -3.4837    -3.8911 H       
  49 H49           -0.9987    -2.6841    -1.5625 H       
  50 H50            6.6894    11.6732    -1.8259 H       
  51 H51            4.9466    11.3118    -1.8125 H       
  52 H52            5.5454    12.8333    -1.1093 H       
@<TRIPOS>BOND
   1    1    2 1
   2    1   10 1
   3    1   13 1
   4    2    3 1
   5    2   12 2
   6    3    4 am
   7    3   24 1
   8    4    5 1
   9    4   14 2
  10    5    6 ar
  11    5   10 ar
  12    6    7 ar
  13    6   33 1
  14    7    8 ar
  15    7   15 1
  16    8    9 ar
  17    8   34 1
  18    9   10 ar
  19    9   35 1
  20   11   12 1
  21   11   13 2
  22   13   36 1
  23   15   16 3
  24   16   17 1
  25   17   18 1
  26   17   37 1
  27   17   38 1
  28   18   19 ar
  29   18   23 ar
  30   19   20 ar
  31   19   39 1
  32   20   21 ar
  33   20   40 1
  34   21   22 ar
  35   21   31 1
  36   22   23 ar
  37   22   41 1
  38   23   42 1
  39   24   25 1
  40   24   43 1
  41   24   44 1
  42   25   26 ar
  43   25   30 ar
  44   26   27 ar
  45   26   45 1
  46   27   28 ar
  47   27   46 1
  48   28   29 ar
  49   28   47 1
  50   29   30 ar
  51   29   48 1
  52   30   49 1
  53   31   32 1
  54   32   50 1
  55   32   51 1
  56   32   52 1

#	End of record

