#	Name: ASD01001247
#	Creating user name:	WinNT
#	Creation time:	15. 06. 2019 18:55

#	Modifying user name:	WinNT
#	Modification time:	15. 06. 2019 18:55

#	Program:	/corina/corina34_cracker 3.40 0067  02.08.2006

@<TRIPOS>MOLECULE
ASD01001247
  49   51    0    0    0
SMALL
NO_CHARGES


@<TRIPOS>ATOM
   1 C1            -0.2652     0.7351     0.8677 C.ar    
   2 C2            -0.1070    -0.5963     0.5321 C.ar    
   3 C3             1.1367    -1.0725     0.1608 C.ar    
   4 C4             2.2217    -0.2171     0.1248 C.ar    
   5 C5             2.0633     1.1149     0.4596 C.ar    
   6 C6             0.8203     1.5907     0.8322 C.ar    
   7 C7             3.5776    -0.7364    -0.2790 C.3     
   8 C8             4.0767    -1.7024     0.7645 C.ar    
   9 C9             3.4704    -1.4420    -1.6063 C.ar    
  10 C10            3.3832    -1.8582     1.9501 C.ar    
  11 C11            3.8410    -2.7443     2.9073 C.ar    
  12 C12            4.9921    -3.4748     2.6787 C.ar    
  13 C13            5.6851    -3.3196     1.4927 C.ar    
  14 C14            5.2249    -2.4368     0.5337 C.ar    
  15 C15            3.6273    -2.8137    -1.6746 C.ar    
  16 C16            3.5290    -3.4609    -2.8921 C.ar    
  17 C17            3.2734    -2.7364    -4.0413 C.ar    
  18 C18            3.1156    -1.3647    -3.9729 C.ar    
  19 C19            3.2096    -0.7181    -2.7547 C.ar    
  20 C20            4.5562     0.4333    -0.4007 C.3     
  21 C21            5.8920    -0.0741    -0.9476 C.3     
  22 C22            6.8212     1.1135    -1.2067 C.3     
  23 C23           -1.2901    -1.5290     0.5714 C.3     
  24 N24            8.1038     0.6263    -1.7317 N.3     
  25 H25           -1.2377     1.1081     1.1534 H       
  26 H26            1.2605    -2.1130    -0.1008 H       
  27 H27            2.9113     1.7832     0.4322 H       
  28 H28            0.6966     2.6311     1.0941 H       
  29 H29            2.4839    -1.2875     2.1287 H       
  30 H30            3.2996    -2.8655     3.8339 H       
  31 H31            5.3502    -4.1665     3.4269 H       
  32 H32            6.5846    -3.8901     1.3143 H       
  33 H33            5.7663    -2.3155    -0.3929 H       
  34 H34            3.8270    -3.3797    -0.7767 H       
  35 H35            3.6523    -4.5325    -2.9455 H       
  36 H36            3.1974    -3.2419    -4.9926 H       
  37 H37            2.9162    -0.7987    -4.8708 H       
  38 H38            3.0863     0.3535    -2.7013 H       
  39 H39            4.1461     1.1810    -1.0796 H       
  40 H40            4.7119     0.8805     0.5810 H       
  41 H41            6.3517    -0.7432    -0.2203 H       
  42 H42            5.7219    -0.6125    -1.8800 H       
  43 H43            6.3615     1.7827    -1.9340 H       
  44 H44            6.9913     1.6519    -0.2743 H       
  45 H45           -1.7834    -1.5312    -0.4006 H       
  46 H46           -0.9502    -2.5371     0.8086 H       
  47 H47           -1.9922    -1.1932     1.3345 H       
  48 H48            7.9665     0.0690    -2.5615 H       
  49 H49            8.7355     1.3924    -1.9111 H       
@<TRIPOS>BOND
   1    1    2 ar
   2    1    6 ar
   3    1   25 1
   4    2    3 ar
   5    2   23 1
   6    3    4 ar
   7    3   26 1
   8    4    5 ar
   9    4    7 1
  10    5    6 ar
  11    5   27 1
  12    6   28 1
  13    7    8 1
  14    7    9 1
  15    7   20 1
  16    8   10 ar
  17    8   14 ar
  18    9   15 ar
  19    9   19 ar
  20   10   11 ar
  21   10   29 1
  22   11   12 ar
  23   11   30 1
  24   12   13 ar
  25   12   31 1
  26   13   14 ar
  27   13   32 1
  28   14   33 1
  29   15   16 ar
  30   15   34 1
  31   16   17 ar
  32   16   35 1
  33   17   18 ar
  34   17   36 1
  35   18   19 ar
  36   18   37 1
  37   19   38 1
  38   20   21 1
  39   20   39 1
  40   20   40 1
  41   21   22 1
  42   21   41 1
  43   21   42 1
  44   22   24 1
  45   22   43 1
  46   22   44 1
  47   23   45 1
  48   23   46 1
  49   23   47 1
  50   24   48 1
  51   24   49 1

#	End of record

