#	Name: ASD04910240
#	Creating user name:	WinNT
#	Creation time:	15. 06. 2019 20:55

#	Modifying user name:	WinNT
#	Modification time:	15. 06. 2019 20:55

#	Program:	/corina/corina34_cracker 3.40 0067  02.08.2006

@<TRIPOS>MOLECULE
ASD04910240
  67   69    0    0    0
SMALL
NO_CHARGES


@<TRIPOS>ATOM
   1 C1             1.0714     1.7056     0.6283 C.2     
   2 C2             0.9270     0.2088     0.5285 C.3     
   3 C3             2.3139    -0.4345     0.4680 C.3     
   4 O4             2.1708     2.2064     0.6490 O.2     
   5 O5            -0.0213     2.4828     0.6887 O.3     
   6 C6             3.2706    -2.6694     0.3048 C.2     
   7 C7             3.1289    -4.1378     0.2068 C.ar    
   8 C8             4.2631    -4.9484     0.1381 C.ar    
   9 C9             4.1239    -6.3179     0.0473 C.ar    
  10 C10            2.8635    -6.8882     0.0239 C.ar    
  11 C11            1.7351    -6.0904     0.0917 C.ar    
  12 C12            1.8604    -4.7199     0.1886 C.ar    
  13 O13            4.3766    -2.1656     0.3256 O.2     
  14 N14            2.1734    -1.8895     0.3710 N.am    
  15 C15            2.7190    -8.3849    -0.0764 C.3     
  16 C16            2.4382    -8.9643     1.3115 C.3     
  17 C17            1.1308    -8.3820     1.8524 C.3     
  18 N18            1.6082    -8.7092    -0.9748 N.pl3   
  19 C19            3.0743    -8.5094    -2.8881 C.ar    
  20 C20            1.8076    -8.7161    -2.3591 C.ar    
  21 C21            0.7373    -8.9309    -3.2252 C.ar    
  22 C22            0.9817    -8.9296    -4.5872 C.ar    
  23 C23            2.2762    -8.7158    -5.0429 C.ar    
  24 N24            3.2691    -8.5150    -4.1921 N.ar    
  25 C25            1.6122    -8.8090    -7.4132 C.2     
  26 N26            2.2335    -8.7713    -8.5603 N.2     
  27 C27            3.5526    -8.6521    -8.3479 C.2     
  28 C28            3.7628    -8.6138    -7.0185 C.2     
  29 N29            2.5334    -8.7132    -6.4190 N.pl3   
  30 C30            4.6157    -8.5748    -9.4132 C.3     
  31 F31            4.0104    -8.5312   -10.6737 F       
  32 F32            5.3825    -7.4200    -9.2239 F       
  33 F33            5.4411    -9.7013    -9.3309 F       
  34 C34            2.3167   -10.4864     1.2138 C.3     
  35 C35            3.5864    -8.6041     2.2564 C.3     
  36 C36            0.1933     3.9157     0.7837 C.3     
  37 C37           -1.1579     4.6310     0.8418 C.3     
  38 H38            0.3915    -0.1635     1.4018 H       
  39 H39            0.3700    -0.0430    -0.3739 H       
  40 H40            2.8493    -0.0621    -0.4053 H       
  41 H41            2.8709    -0.1826     1.3705 H       
  42 H42            5.2474    -4.5045     0.1555 H       
  43 H43            5.0006    -6.9463    -0.0060 H       
  44 H44            0.7541    -6.5418     0.0730 H       
  45 H45            0.9789    -4.0986     0.2459 H       
  46 H46            1.2908    -2.2915     0.3544 H       
  47 H47            3.6411    -8.8134    -0.4693 H       
  48 H48            0.3129    -8.6387     1.1792 H       
  49 H49            0.9308    -8.7948     2.8412 H       
  50 H50            1.2174    -7.2977     1.9220 H       
  51 H51            0.7345    -8.9192    -0.6096 H       
  52 H52            3.9087    -8.3376    -2.2242 H       
  53 H53           -0.2592    -9.0949    -2.8425 H       
  54 H54            0.1758    -9.0932    -5.2873 H       
  55 H55            0.5445    -8.8969    -7.2771 H       
  56 H56            4.7166    -8.5225    -6.5200 H       
  57 H57            3.2122   -10.8929     0.7437 H       
  58 H58            2.2081   -10.9071     2.2134 H       
  59 H59            1.4432   -10.7433     0.6145 H       
  60 H60            3.6730    -7.5197     2.3261 H       
  61 H61            3.3864    -9.0168     3.2452 H       
  62 H62            4.5178    -9.0189     1.8711 H       
  63 H63            0.7617     4.1388     1.6866 H       
  64 H64            0.7487     4.2585    -0.0893 H       
  65 H65           -1.7263     4.4078    -0.0611 H       
  66 H66           -1.7133     4.2881     1.7148 H       
  67 H67           -0.9968     5.7066     0.9131 H       
@<TRIPOS>BOND
   1    1    2 1
   2    1    4 2
   3    1    5 1
   4    2    3 1
   5    2   38 1
   6    2   39 1
   7    3   14 1
   8    3   40 1
   9    3   41 1
  10    5   36 1
  11    6    7 1
  12    6   13 2
  13    6   14 am
  14    7    8 ar
  15    7   12 ar
  16    8    9 ar
  17    8   42 1
  18    9   10 ar
  19    9   43 1
  20   10   11 ar
  21   10   15 1
  22   11   12 ar
  23   11   44 1
  24   12   45 1
  25   14   46 1
  26   15   16 1
  27   15   18 1
  28   15   47 1
  29   16   17 1
  30   16   34 1
  31   16   35 1
  32   17   48 1
  33   17   49 1
  34   17   50 1
  35   18   20 1
  36   18   51 1
  37   19   20 ar
  38   19   24 ar
  39   19   52 1
  40   20   21 ar
  41   21   22 ar
  42   21   53 1
  43   22   23 ar
  44   22   54 1
  45   23   24 ar
  46   23   29 1
  47   25   26 2
  48   25   29 1
  49   25   55 1
  50   26   27 1
  51   27   28 2
  52   27   30 1
  53   28   29 1
  54   28   56 1
  55   30   31 1
  56   30   32 1
  57   30   33 1
  58   34   57 1
  59   34   58 1
  60   34   59 1
  61   35   60 1
  62   35   61 1
  63   35   62 1
  64   36   37 1
  65   36   63 1
  66   36   64 1
  67   37   65 1
  68   37   66 1
  69   37   67 1

#	End of record

