#	Name: ASD03090929
#	Creating user name:	WinNT
#	Creation time:	15. 06. 2019 20:29

#	Modifying user name:	WinNT
#	Modification time:	15. 06. 2019 20:29

#	Program:	/corina/corina34_cracker 3.40 0067  02.08.2006

@<TRIPOS>MOLECULE
ASD03090929
  50   53    0    0    0
SMALL
NO_CHARGES


@<TRIPOS>ATOM
   1 N1            -0.0149     1.3421     0.1053 N.am    
   2 C2             0.0030    -0.0051     0.0723 C.2     
   3 O3            -1.0442    -0.6288     0.0752 O.2     
   4 N4             1.1687    -0.6570     0.0363 N.2     
   5 C5             1.2438     2.0918     0.1019 C.3     
   6 C6            -1.2932     2.0571     0.1387 C.3     
   7 C7            -1.7138     2.2676     1.5704 C.ar    
   8 C8            -1.3213     3.4094     2.2443 C.ar    
   9 C9            -1.7056     3.6047     3.5567 C.ar    
  10 C10           -2.4860     2.6541     4.1986 C.ar    
  11 C11           -2.8785     1.5093     3.5202 C.ar    
  12 C12           -2.4963     1.3214     2.2061 C.ar    
  13 O13           -2.8649     2.8437     5.4898 O.3     
  14 C14           -3.6679     1.8235     6.0868 C.3     
  15 S15           -0.1729    -3.0447     0.0008 S.3     
  16 C16            1.1864    -1.9875     0.0037 C.2     
  17 N17            2.2793    -2.7909    -0.0347 N.pl3   
  18 C18            2.0560    -4.1338    -0.0639 C.2     
  19 C19            0.7906    -4.5309    -0.0521 C.2     
  20 C20            0.2795    -5.9484    -0.0787 C.3     
  21 O21            7.4851    -0.9543    -0.0528 O.3     
  22 C22            8.1209    -2.2099    -0.3569 C.3     
  23 O23            7.1778    -3.1928     0.1096 O.3     
  24 C24            5.9555    -2.5894     0.0355 C.ar    
  25 C25            6.1440    -1.2125    -0.0645 C.ar    
  26 C26            4.6733    -3.1114     0.0455 C.ar    
  27 C27            3.5781    -2.2627    -0.0443 C.ar    
  28 C28            3.7690    -0.8915    -0.1440 C.ar    
  29 C29            5.0485    -0.3694    -0.1545 C.ar    
  30 F30            8.3226    -2.3376    -1.7353 F       
  31 F31            9.3332    -2.3264     0.3315 F       
  32 H32            1.5382     2.3026    -0.9262 H       
  33 H33            1.1096     3.0295     0.6410 H       
  34 H34            2.0199     1.5008     0.5882 H       
  35 H35           -1.1819     3.0234    -0.3532 H       
  36 H36           -2.0513     1.4704    -0.3802 H       
  37 H37           -0.7135     4.1489     1.7442 H       
  38 H38           -1.3985     4.4965     4.0828 H       
  39 H39           -3.4860     0.7678     4.0178 H       
  40 H40           -2.8056     0.4327     1.6761 H       
  41 H41           -4.5942     1.7136     5.5229 H       
  42 H42           -3.1225     0.8798     6.0772 H       
  43 H43           -3.8994     2.0989     7.1157 H       
  44 H44            2.8708    -4.8420    -0.0952 H       
  45 H45           -0.8103    -5.9421    -0.0608 H       
  46 H46            0.6251    -6.4422    -0.9869 H       
  47 H47            0.6541    -6.4861     0.7923 H       
  48 H48            4.5250    -4.1784     0.1226 H       
  49 H49            2.9166    -0.2319    -0.2138 H       
  50 H50            5.1947     0.6979    -0.2316 H       
@<TRIPOS>BOND
   1    1    2 am
   2    1    5 1
   3    1    6 1
   4    2    3 2
   5    2    4 1
   6    4   16 2
   7    5   32 1
   8    5   33 1
   9    5   34 1
  10    6    7 1
  11    6   35 1
  12    6   36 1
  13    7    8 ar
  14    7   12 ar
  15    8    9 ar
  16    8   37 1
  17    9   10 ar
  18    9   38 1
  19   10   11 ar
  20   10   13 1
  21   11   12 ar
  22   11   39 1
  23   12   40 1
  24   13   14 1
  25   14   41 1
  26   14   42 1
  27   14   43 1
  28   15   16 1
  29   15   19 1
  30   16   17 1
  31   17   18 1
  32   17   27 1
  33   18   19 2
  34   18   44 1
  35   19   20 1
  36   20   45 1
  37   20   46 1
  38   20   47 1
  39   21   22 1
  40   21   25 1
  41   22   23 1
  42   22   30 1
  43   22   31 1
  44   23   24 1
  45   24   25 ar
  46   24   26 ar
  47   25   29 ar
  48   26   27 ar
  49   26   48 1
  50   27   28 ar
  51   28   29 ar
  52   28   49 1
  53   29   50 1

#	End of record

