#	Name: ASD01142002
#	Creating user name:	WinNT
#	Creation time:	15. 06. 2019 19:01

#	Modifying user name:	WinNT
#	Modification time:	15. 06. 2019 19:01

#	Program:	/corina/corina34_cracker 3.40 0067  02.08.2006

@<TRIPOS>MOLECULE
ASD01142002
  51   54    0    0    0
SMALL
NO_CHARGES


@<TRIPOS>ATOM
   1 C1             1.1631     1.4503     1.1797 C.ar    
   2 C2             0.9168     0.0861     1.1028 C.ar    
   3 C3             1.8748    -0.7804     0.6006 C.ar    
   4 C4             3.1139    -0.2633     0.1631 C.ar    
   5 C5             3.3446     1.1307     0.2497 C.ar    
   6 C6             2.3535     1.9738     0.7629 C.ar    
   7 N7             4.0701    -1.0603    -0.3289 N.ar    
   8 N8             5.2001    -0.6011    -0.7290 N.ar    
   9 C9             5.5166     0.6950    -0.6900 C.ar    
  10 C10            4.5952     1.6285    -0.1950 C.ar    
  11 N11            4.8929     2.9726    -0.1422 N.pl3   
  12 C12            1.6017    -2.2348     0.5239 C.ar    
  13 C13            1.8286    -2.9359    -0.6608 C.ar    
  14 N14            1.5890    -4.2296    -0.7380 N.ar    
  15 C15            1.1290    -4.9172     0.2868 C.ar    
  16 C16            0.8735    -4.2945     1.5103 C.ar    
  17 C17            1.1192    -2.9246     1.6379 C.ar    
  18 C18            6.8360     1.1452    -1.1679 C.2     
  19 N19            7.7644     0.2400    -1.5355 N.am    
  20 O20            7.0870     2.3335    -1.2305 O.2     
  21 C21            9.0760     0.6875    -2.0105 C.3     
  22 C22            9.9344    -0.5298    -2.3602 C.3     
  23 C23           11.3042    -0.0624    -2.8563 C.3     
  24 C24            0.3568    -5.0741     2.6555 C.2     
  25 N25           -0.0083    -4.4441     3.7897 N.am    
  26 O26            0.2612    -6.2831     2.5741 O.2     
  27 C27           -0.4558    -4.8512     5.1301 C.3     
  28 C28           -1.2045    -3.5148     5.2269 C.3     
  29 C29           -0.1282    -3.0471     4.2335 C.3     
  30 H30            0.4005     2.1075     1.5708 H       
  31 H31           -0.0324    -0.3045     1.4387 H       
  32 H32            2.5294     3.0373     0.8294 H       
  33 H33            5.8168     3.2663    -0.1740 H       
  34 H34            4.1786     3.6252    -0.0731 H       
  35 H35            2.2053    -2.4114    -1.5264 H       
  36 H36            0.9466    -5.9762     0.1794 H       
  37 H37            0.9326    -2.4118     2.5700 H       
  38 H38            7.5642    -0.7078    -1.4856 H       
  39 H39            8.9487     1.3091    -2.8969 H       
  40 H40            9.5676     1.2662    -1.2285 H       
  41 H41           10.0616    -1.1513    -1.4738 H       
  42 H42            9.4428    -1.1084    -3.1422 H       
  43 H43           11.7958     0.5163    -2.0743 H       
  44 H44           11.9157    -0.9296    -3.1054 H       
  45 H45           11.1769     0.5592    -3.7426 H       
  46 H46           -1.1155    -5.7189     5.1226 H       
  47 H47            0.3579    -4.9460     5.8492 H       
  48 H48           -2.2148    -3.5379     4.8182 H       
  49 H49           -1.1439    -3.0383     6.2054 H       
  50 H50            0.7704    -2.6628     4.7161 H       
  51 H51           -0.5108    -2.3798     3.4612 H       
@<TRIPOS>BOND
   1    1    2 ar
   2    1    6 ar
   3    1   30 1
   4    2    3 ar
   5    2   31 1
   6    3    4 ar
   7    3   12 1
   8    4    5 ar
   9    4    7 ar
  10    5    6 ar
  11    5   10 ar
  12    6   32 1
  13    7    8 ar
  14    8    9 ar
  15    9   10 ar
  16    9   18 1
  17   10   11 1
  18   11   33 1
  19   11   34 1
  20   12   13 ar
  21   12   17 ar
  22   13   14 ar
  23   13   35 1
  24   14   15 ar
  25   15   16 ar
  26   15   36 1
  27   16   17 ar
  28   16   24 1
  29   17   37 1
  30   18   19 am
  31   18   20 2
  32   19   21 1
  33   19   38 1
  34   21   22 1
  35   21   39 1
  36   21   40 1
  37   22   23 1
  38   22   41 1
  39   22   42 1
  40   23   43 1
  41   23   44 1
  42   23   45 1
  43   24   25 am
  44   24   26 2
  45   25   27 1
  46   25   29 1
  47   27   28 1
  48   27   46 1
  49   27   47 1
  50   28   29 1
  51   28   48 1
  52   28   49 1
  53   29   50 1
  54   29   51 1

#	End of record

