#	Name: ASD09116053
#	Creating user name:	WinNT
#	Creation time:	15. 06. 2019 21:20

#	Modifying user name:	WinNT
#	Modification time:	15. 06. 2019 21:20

#	Program:	/corina/corina34_cracker 3.40 0067  02.08.2006

@<TRIPOS>MOLECULE
ASD09116053
  28   29    0    0    0
SMALL
NO_CHARGES


@<TRIPOS>ATOM
   1 C1            -0.0167     1.3806     0.0096 C.ar    
   2 C2             0.0021    -0.0041     0.0020 C.ar    
   3 C3            -1.3046    -0.7463     0.0271 C.3     
   4 C4            -1.5433    -1.2821     1.4386 C.3     
   5 C5            -1.5323    -0.0892     2.4345 C.3     
   6 C6            -2.6015     0.9178     1.9730 C.3     
   7 C7            -1.9476     2.1510     1.3823 C.3     
   8 C8            -1.3623     2.0538     0.0097 C.3     
   9 N9             1.1172     2.0504     0.0024 N.ar    
  10 C10            2.2765     1.4017    -0.0199 C.ar    
  11 N11            2.3364     0.0776    -0.0345 N.ar    
  12 C12            1.2271    -0.6565    -0.0240 C.ar    
  13 O13            1.2915    -2.0100    -0.0378 O.3     
  14 S14            3.7758     2.3272    -0.0308 S.3     
  15 H15           -2.1139    -0.0700    -0.2483 H       
  16 H16           -1.2658    -1.5775    -0.6771 H       
  17 H17           -2.5098    -1.7841     1.4803 H       
  18 H18           -0.7525    -1.9848     1.7013 H       
  19 H19           -1.7677    -0.4438     3.4380 H       
  20 H20           -0.5513     0.3860     2.4306 H       
  21 H21           -3.2356     0.4503     1.2198 H       
  22 H22           -3.2147     1.2086     2.8260 H       
  23 H23           -2.6928     2.9464     1.3688 H       
  24 H24           -1.1523     2.4608     2.0602 H       
  25 H25           -1.2551     3.0579    -0.4007 H       
  26 H26           -2.0420     1.4852    -0.6249 H       
  27 H27            1.3241    -2.4113     0.8414 H       
  28 H28            4.0030     2.4417     1.3561 H       
@<TRIPOS>BOND
   1    1    2 ar
   2    1    9 ar
   3    1    8 1
   4    2    3 1
   5    2   12 ar
   6    3    4 1
   7    3   15 1
   8    3   16 1
   9    4    5 1
  10    4   17 1
  11    4   18 1
  12    5    6 1
  13    5   19 1
  14    5   20 1
  15    6    7 1
  16    6   21 1
  17    6   22 1
  18    7    8 1
  19    7   23 1
  20    7   24 1
  21    8   25 1
  22    8   26 1
  23    9   10 ar
  24   10   11 ar
  25   10   14 1
  26   11   12 ar
  27   12   13 1
  28   13   27 1
  29   14   28 1

#	End of record

