#	Name: ASD01883885
#	Creating user name:	WinNT
#	Creation time:	15. 06. 2019 19:47

#	Modifying user name:	WinNT
#	Modification time:	15. 06. 2019 19:47

#	Program:	/corina/corina34_cracker 3.40 0067  02.08.2006

@<TRIPOS>MOLECULE
ASD01883885
  47   50    0    0    0
SMALL
NO_CHARGES


@<TRIPOS>ATOM
   1 C1             0.1610     1.3217     0.5314 C.ar    
   2 C2             0.2743    -0.0323     0.6593 C.ar    
   3 C3             1.5411    -0.6299     0.7051 C.ar    
   4 C4             2.6931     0.1726     0.6187 C.ar    
   5 C5             2.5623     1.5450     0.4891 C.ar    
   6 C6             1.2988     2.1191     0.4456 C.ar    
   7 C7             1.6649    -2.0830     0.8429 C.2     
   8 O8             2.7567    -2.6080     0.7749 O.2     
   9 C9             0.4363    -2.9259     1.0690 C.3     
  10 O10            3.9245    -0.3944     0.6623 O.3     
  11 O11            1.1725     3.4642     0.3186 O.3     
  12 C12           -0.1555     3.9904     0.2802 C.3     
  13 C13           -0.0980     5.4894     0.1370 C.ar    
  14 C14           -0.0031     7.6657     1.1356 C.ar    
  15 C15           -0.0555     6.2897     1.2635 C.ar    
  16 C16           -0.0820     6.0626    -1.1200 C.ar    
  17 C17           -0.0290     7.4427    -1.2511 C.ar    
  18 C18            0.0078     8.2440    -0.1186 C.ar    
  19 O19           -0.0128     8.0090    -2.4863 O.3     
  20 C20           -1.1238     7.8912    -3.2555 C.ar    
  21 C21           -3.3163     7.2008    -3.4565 C.ar    
  22 N22           -2.2129     7.3368    -2.7486 N.ar    
  23 C23           -1.1048     8.3598    -4.5643 C.ar    
  24 C24           -2.2403     8.2368    -5.3415 C.ar    
  25 C25           -3.3722     7.6409    -4.7755 C.ar    
  26 Cl26           3.9762     2.5465     0.3820 Cl      
  27 C27           -4.6172     7.4852    -5.5688 C.2     
  28 N28           -5.7499     6.9495    -5.1593 N.2     
  29 N29           -6.5866     7.0001    -6.1382 N.pl3   
  30 N30           -6.0201     7.5508    -7.1546 N.2     
  31 N31           -4.8101     7.8673    -6.8392 N.2     
  32 H32           -0.8176     1.7769     0.4920 H       
  33 H33           -0.6134    -0.6439     0.7257 H       
  34 H34           -0.4304    -2.2775     1.1980 H       
  35 H35            0.2785    -3.5764     0.2088 H       
  36 H36            0.5720    -3.5333     1.9639 H       
  37 H37            4.2741    -0.6428    -0.2044 H       
  38 H38           -0.6906     3.5646    -0.5687 H       
  39 H39           -0.6751     3.7332     1.2032 H       
  40 H40            0.0293     8.2887     2.0172 H       
  41 H41           -0.0636     5.8395     2.2452 H       
  42 H42           -0.1104     5.4368    -1.9998 H       
  43 H43            0.0483     9.3186    -0.2180 H       
  44 H44           -4.1859     6.7430    -3.0085 H       
  45 H45           -0.2127     8.8150    -4.9686 H       
  46 H46           -2.2538     8.5924    -6.3612 H       
  47 H47           -7.4997     6.6740    -6.1132 H       
@<TRIPOS>BOND
   1    1    2 ar
   2    1    6 ar
   3    1   32 1
   4    2    3 ar
   5    2   33 1
   6    3    4 ar
   7    3    7 1
   8    4    5 ar
   9    4   10 1
  10    5    6 ar
  11    5   26 1
  12    6   11 1
  13    7    8 2
  14    7    9 1
  15    9   34 1
  16    9   35 1
  17    9   36 1
  18   10   37 1
  19   11   12 1
  20   12   13 1
  21   12   38 1
  22   12   39 1
  23   13   16 ar
  24   13   15 ar
  25   14   15 ar
  26   14   18 ar
  27   14   40 1
  28   15   41 1
  29   16   17 ar
  30   16   42 1
  31   17   18 ar
  32   17   19 1
  33   18   43 1
  34   19   20 1
  35   20   23 ar
  36   20   22 ar
  37   21   22 ar
  38   21   25 ar
  39   21   44 1
  40   23   24 ar
  41   23   45 1
  42   24   25 ar
  43   24   46 1
  44   25   27 1
  45   27   28 2
  46   27   31 1
  47   28   29 1
  48   29   30 1
  49   29   47 1
  50   30   31 2

#	End of record

