#	Name: ASD00570008
#	Creating user name:	WinNT
#	Creation time:	15. 06. 2019 18:36

#	Modifying user name:	WinNT
#	Modification time:	15. 06. 2019 18:36

#	Program:	/corina/corina34_cracker 3.40 0067  02.08.2006

@<TRIPOS>MOLECULE
ASD00570008
  80   85    0    0    0
SMALL
NO_CHARGES


@<TRIPOS>ATOM
   1 C1             5.8064    -1.6528    -6.7278 C.ar    
   2 C2             5.7284    -2.9273    -6.1812 C.ar    
   3 C3             5.6998    -3.1092    -4.8173 C.ar    
   4 C4             5.7503    -1.9992    -3.9696 C.ar    
   5 C5             5.8301    -0.7034    -4.5295 C.ar    
   6 C6             5.8573    -0.5426    -5.9138 C.ar    
   7 N7             5.7240    -2.1353    -2.6229 N.2     
   8 C8             5.7709    -1.0950    -1.8279 C.2     
   9 N9             5.8488     0.1910    -2.2869 N.am    
  10 C10            5.8814     0.4455    -3.6154 C.2     
  11 C11            5.8953     1.2530    -1.3744 C.ar    
  12 C12            4.7227     1.7365    -0.8093 C.ar    
  13 C13            4.7719     2.7833     0.0903 C.ar    
  14 C14            5.9872     3.3498     0.4284 C.ar    
  15 C15            7.1566     2.8708    -0.1330 C.ar    
  16 C16            7.1146     1.8204    -1.0289 C.ar    
  17 S17            5.7311    -1.3651    -0.0872 S.3     
  18 C18            5.7336    -3.1747    -0.0498 C.3     
  19 C19            7.0954    -3.6835    -0.4471 C.2     
  20 C20            5.4019    -3.6561     1.3641 C.3     
  21 C21            3.9666    -3.2586     1.7146 C.3     
  22 C22            3.6487    -3.7035     3.1435 C.3     
  23 C23            2.2134    -3.3059     3.4940 C.3     
  24 N24            7.2264    -4.9165    -0.9754 N.am    
  25 C25            8.5473    -5.4264    -1.3676 C.3     
  26 C26            8.7767    -6.7783    -0.6846 C.3     
  27 C27            7.6157    -7.7177    -1.0188 C.3     
  28 C28            6.3083    -7.1244    -0.4888 C.3     
  29 C29            6.0517    -5.7785    -1.1645 C.3     
  30 O30            8.0734    -2.9834    -0.2915 O.2     
  31 O31            5.9507     1.5851    -4.0379 O.2     
  32 C32            7.5208    -7.8866    -2.5133 C.ar    
  33 C33            7.8548    -9.0597    -0.3763 C.ar    
  34 C34            7.2980    -6.7867    -3.3205 C.ar    
  35 C35            7.2110    -6.9417    -4.6913 C.ar    
  36 C36            7.3472    -8.1965    -5.2551 C.ar    
  37 C37            7.5710    -9.2962    -4.4480 C.ar    
  38 C38            7.6623    -9.1406    -3.0775 C.ar    
  39 C39            6.8984   -10.0530    -0.4739 C.ar    
  40 C40            7.1177   -11.2840     0.1155 C.ar    
  41 C41            8.2936   -11.5219     0.8021 C.ar    
  42 C42            9.2505   -10.5289     0.8989 C.ar    
  43 C43            9.0330    -9.2993     0.3058 C.ar    
  44 H44            5.8318    -1.5313    -7.8006 H       
  45 H45            5.6893    -3.7863    -6.8346 H       
  46 H46            5.6384    -4.1051    -4.4040 H       
  47 H47            5.9179     0.4456    -6.3453 H       
  48 H48            3.7732     1.2947    -1.0733 H       
  49 H49            3.8602     3.1600     0.5299 H       
  50 H50            6.0230     4.1682     1.1321 H       
  51 H51            8.1042     3.3157     0.1325 H       
  52 H52            8.0282     1.4468    -1.4670 H       
  53 H53            4.9865    -3.5536    -0.7472 H       
  54 H54            5.5003    -4.7406     1.4111 H       
  55 H55            6.0897    -3.1977     2.0747 H       
  56 H56            3.8606    -2.1764     1.6389 H       
  57 H57            3.2767    -3.7406     1.0219 H       
  58 H58            3.7547    -4.7857     3.2192 H       
  59 H59            4.3386    -3.2215     3.8361 H       
  60 H60            1.9869    -3.6229     4.5120 H       
  61 H61            2.1074    -2.2237     3.4183 H       
  62 H62            1.5235    -3.7879     2.8014 H       
  63 H63            8.5837    -5.5529    -2.4497 H       
  64 H64            9.3185    -4.7229    -1.0538 H       
  65 H65            9.7105    -7.2125    -1.0417 H       
  66 H66            8.8304    -6.6360     0.3948 H       
  67 H67            5.4853    -7.8050    -0.7066 H       
  68 H68            6.3853    -6.9789     0.5887 H       
  69 H69            5.1756    -5.3072    -0.7191 H       
  70 H70            5.8848    -5.9309    -2.2308 H       
  71 H71            7.1915    -5.8064    -2.8800 H       
  72 H72            7.0362    -6.0825    -5.3219 H       
  73 H73            7.2785    -8.3176    -6.3261 H       
  74 H74            7.6771   -10.2766    -4.8885 H       
  75 H75            7.8372    -9.9998    -2.4470 H       
  76 H76            5.9796    -9.8672    -1.0104 H       
  77 H77            6.3702   -12.0598     0.0398 H       
  78 H78            8.4647   -12.4834     1.2632 H       
  79 H79           10.1691   -10.7147     1.4357 H       
  80 H80            9.7805    -8.5235     0.3815 H       
@<TRIPOS>BOND
   1    1    2 ar
   2    1    6 ar
   3    1   44 1
   4    2    3 ar
   5    2   45 1
   6    3    4 ar
   7    3   46 1
   8    4    5 ar
   9    4    7 1
  10    5    6 ar
  11    5   10 1
  12    6   47 1
  13    7    8 2
  14    8    9 1
  15    8   17 1
  16    9   10 am
  17    9   11 1
  18   10   31 2
  19   11   12 ar
  20   11   16 ar
  21   12   13 ar
  22   12   48 1
  23   13   14 ar
  24   13   49 1
  25   14   15 ar
  26   14   50 1
  27   15   16 ar
  28   15   51 1
  29   16   52 1
  30   17   18 1
  31   18   19 1
  32   18   20 1
  33   18   53 1
  34   19   24 am
  35   19   30 2
  36   20   21 1
  37   20   54 1
  38   20   55 1
  39   21   22 1
  40   21   56 1
  41   21   57 1
  42   22   23 1
  43   22   58 1
  44   22   59 1
  45   23   60 1
  46   23   61 1
  47   23   62 1
  48   24   25 1
  49   24   29 1
  50   25   26 1
  51   25   63 1
  52   25   64 1
  53   26   27 1
  54   26   65 1
  55   26   66 1
  56   27   28 1
  57   27   32 1
  58   27   33 1
  59   28   29 1
  60   28   67 1
  61   28   68 1
  62   29   69 1
  63   29   70 1
  64   32   34 ar
  65   32   38 ar
  66   33   39 ar
  67   33   43 ar
  68   34   35 ar
  69   34   71 1
  70   35   36 ar
  71   35   72 1
  72   36   37 ar
  73   36   73 1
  74   37   38 ar
  75   37   74 1
  76   38   75 1
  77   39   40 ar
  78   39   76 1
  79   40   41 ar
  80   40   77 1
  81   41   42 ar
  82   41   78 1
  83   42   43 ar
  84   42   79 1
  85   43   80 1

#	End of record

