#	Name: ASD09320015
#	Creating user name:	WinNT
#	Creation time:	15. 06. 2019 21:21

#	Modifying user name:	WinNT
#	Modification time:	15. 06. 2019 21:21

#	Program:	/corina/corina34_cracker 3.40 0067  02.08.2006

@<TRIPOS>MOLECULE
ASD09320015
  54   56    0    0    0
SMALL
NO_CHARGES


@<TRIPOS>ATOM
   1 C1             0.0776     1.4391     0.0039 C.ar    
   2 C2             0.0940     0.0636     0.0926 C.ar    
   3 C3             1.2818    -0.6343    -0.1328 C.ar    
   4 C4             2.4488     0.0643    -0.4472 C.ar    
   5 C5             2.4243     1.4397    -0.5341 C.ar    
   6 C6             1.2406     2.1305    -0.3092 C.ar    
   7 C7             1.3039    -2.1105    -0.0381 C.2     
   8 C8             1.5603    -2.8567    -1.1405 C.2     
   9 C9             1.0462    -2.7726     1.2601 C.ar    
  10 C10            2.0700    -3.4632     1.9099 C.ar    
  11 C11            1.8233    -4.0783     3.1198 C.ar    
  12 C12            0.5640    -4.0116     3.6891 C.ar    
  13 C13           -0.4555    -3.3289     3.0497 C.ar    
  14 C14           -0.2201    -2.7042     1.8423 C.ar    
  15 C15            1.9311    -2.2000    -2.4030 C.ar    
  16 C16            1.4652    -4.3591    -1.0723 C.3     
  17 C17            3.2032    -2.3966    -2.9507 C.ar    
  18 C18            3.5430    -1.7777    -4.1350 C.ar    
  19 C19            2.6293    -0.9636    -4.7817 C.ar    
  20 C20            1.3689    -0.7636    -4.2461 C.ar    
  21 C21            1.0116    -1.3799    -3.0656 C.ar    
  22 O22            1.2205     3.4862    -0.3952 O.3     
  23 C23           -0.0302     4.1333    -0.1521 C.3     
  24 C24            0.1428     5.6469    -0.2929 C.3     
  25 N25            0.4853     5.9733    -1.6837 N.3     
  26 C26            0.6594     7.4216    -1.8569 C.3     
  27 C27            0.0729    -4.8032    -1.5255 C.3     
  28 H28           -0.8420     1.9795     0.1736 H       
  29 H29           -0.8107    -0.4733     0.3364 H       
  30 H30            3.3697    -0.4722    -0.6218 H       
  31 H31            3.3267     1.9809    -0.7773 H       
  32 H32            3.0533    -3.5162     1.4664 H       
  33 H33            2.6147    -4.6134     3.6236 H       
  34 H34            0.3759    -4.4949     4.6365 H       
  35 H35           -1.4364    -3.2808     3.4991 H       
  36 H36           -1.0166    -2.1713     1.3444 H       
  37 H37            2.2179    -4.8008    -1.7253 H       
  38 H38            1.6356    -4.6878    -0.0471 H       
  39 H39            3.9173    -3.0313    -2.4471 H       
  40 H40            4.5248    -1.9282    -4.5590 H       
  41 H41            2.9015    -0.4816    -5.7090 H       
  42 H42            0.6618    -0.1263    -4.7564 H       
  43 H43            0.0276    -1.2231    -2.6490 H       
  44 H44           -0.7671     3.7830    -0.8748 H       
  45 H45           -0.3705     3.8988     0.8565 H       
  46 H46           -0.7875     6.1458    -0.0211 H       
  47 H47            0.9422     5.9842     0.3669 H       
  48 H48            1.3091     5.4720    -1.9804 H       
  49 H49           -0.2673     7.9328    -1.5960 H       
  50 H50            1.4624     7.7712    -1.2080 H       
  51 H51            0.9123     7.6355    -2.8954 H       
  52 H52           -0.0182    -5.8836    -1.4136 H       
  53 H53           -0.6827    -4.3095    -0.9144 H       
  54 H54           -0.0721    -4.5327    -2.5714 H       
@<TRIPOS>BOND
   1    1    2 ar
   2    1    6 ar
   3    1   28 1
   4    2    3 ar
   5    2   29 1
   6    3    4 ar
   7    3    7 1
   8    4    5 ar
   9    4   30 1
  10    5    6 ar
  11    5   31 1
  12    6   22 1
  13    7    8 2
  14    7    9 1
  15    8   15 1
  16    8   16 1
  17    9   10 ar
  18    9   14 ar
  19   10   11 ar
  20   10   32 1
  21   11   12 ar
  22   11   33 1
  23   12   13 ar
  24   12   34 1
  25   13   14 ar
  26   13   35 1
  27   14   36 1
  28   15   17 ar
  29   15   21 ar
  30   16   27 1
  31   16   37 1
  32   16   38 1
  33   17   18 ar
  34   17   39 1
  35   18   19 ar
  36   18   40 1
  37   19   20 ar
  38   19   41 1
  39   20   21 ar
  40   20   42 1
  41   21   43 1
  42   22   23 1
  43   23   24 1
  44   23   44 1
  45   23   45 1
  46   24   25 1
  47   24   46 1
  48   24   47 1
  49   25   26 1
  50   25   48 1
  51   26   49 1
  52   26   50 1
  53   26   51 1
  54   27   52 1
  55   27   53 1
  56   27   54 1

#	End of record

