#	Name: ASD00069378
#	Creating user name:	WinNT
#	Creation time:	15. 06. 2019 18:29

#	Modifying user name:	WinNT
#	Modification time:	15. 06. 2019 18:29

#	Program:	/corina/corina34_cracker 3.40 0067  02.08.2006

@<TRIPOS>MOLECULE
ASD00069378
  88   93    0    0    0
SMALL
NO_CHARGES


@<TRIPOS>ATOM
   1 C1             0.9091     0.1007    -1.1099 C.2     
   2 C2             0.8666    -1.2216    -0.7261 C.2     
   3 N3             2.2064     0.4765    -1.0796 N.pl3   
   4 C4             2.9381    -0.6080    -0.6816 C.2     
   5 N5             2.1217    -1.6160    -0.4740 N.2     
   6 C6            -0.3513    -2.0591    -0.6122 C.ar    
   7 N7            -1.5512    -1.5491    -0.8922 N.ar    
   8 C8            -0.2578    -3.3921    -0.2166 C.ar    
   9 C9            -1.4303    -4.1393    -0.1245 C.ar    
  10 N10           -2.5919    -3.5599    -0.4152 N.ar    
  11 C11           -2.6428    -2.2913    -0.7931 C.ar    
  12 C12            4.4026    -0.6404    -0.5127 C.2     
  13 N13            5.0099    -1.7754    -0.1134 N.am    
  14 O14            5.0624     0.3570    -0.7337 O.2     
  15 C15            6.4080    -1.8442    -0.0722 C.ar    
  16 C16            7.0379    -2.8258     0.6937 C.ar    
  17 C17            7.1704    -0.9407    -0.7967 C.ar    
  18 C18            8.5506    -1.0105    -0.7545 C.ar    
  19 C19            9.1749    -1.9792     0.0092 C.ar    
  20 C20            8.4228    -2.8883     0.7301 C.ar    
  21 N21            6.2749    -3.7439     1.4229 N.3     
  22 C22            5.5395    -3.0753     2.5055 C.3     
  23 C23            4.6582    -4.0975     3.2270 C.3     
  24 N24            5.5001    -5.1795     3.7561 N.3     
  25 C25            6.2354    -5.8481     2.6736 C.3     
  26 C26            7.1168    -4.8259     1.9520 C.3     
  27 N27           -1.3867    -5.4689     0.2643 N.3     
  28 C28           -2.0897    -5.6679     1.5381 C.3     
  29 C29           -1.9301    -6.3419    -0.7841 C.3     
  30 C30           -1.7334    -7.8057    -0.3834 C.3     
  31 C31           -2.4482    -8.0667     0.9453 C.3     
  32 C32           -1.8978    -7.1117     2.0081 C.3     
  33 C33           -2.6372    -7.3214     3.3043 C.2     
  34 N34           -2.6130    -8.5269     3.9066 N.am    
  35 O35           -3.2541    -6.4054     3.8056 O.2     
  36 C36           -3.3318    -8.7307     5.1667 C.3     
  37 C37           -3.6824   -10.2121     5.3200 C.3     
  38 C38           -2.4469    -8.2925     6.3353 C.3     
  39 C39           -3.1976    -8.5054     7.6514 C.3     
  40 C40           -3.5482    -9.9868     7.8047 C.3     
  41 C41           -4.4331   -10.4250     6.6360 C.3     
  42 C42           -1.2005    -6.0714    -2.1014 C.3     
  43 N43           -3.8710    -1.7249    -1.0868 N.pl3   
  44 C44           -3.9498    -0.3235    -1.5066 C.3     
  45 H45            0.0669     0.7175    -1.3867 H       
  46 H46            2.5549     1.3545    -1.3000 H       
  47 H47            0.7000    -3.8352     0.0127 H       
  48 H48            4.4786    -2.5446     0.1453 H       
  49 H49            6.6861    -0.1826    -1.3944 H       
  50 H50            9.1429    -0.3064    -1.3200 H       
  51 H51           10.2533    -2.0295     0.0384 H       
  52 H52            8.9138    -3.6434     1.3259 H       
  53 H53            6.2473    -2.6421     3.2123 H       
  54 H54            4.9140    -2.2867     2.0872 H       
  55 H55            4.1338    -3.6098     4.0488 H       
  56 H56            3.9325    -4.5108     2.5265 H       
  57 H57            6.1321    -4.8335     4.4625 H       
  58 H58            6.8610    -6.6367     3.0919 H       
  59 H59            5.5277    -6.2813     1.9668 H       
  60 H60            7.6412    -5.3136     1.1303 H       
  61 H61            7.8424    -4.4126     2.6525 H       
  62 H62           -1.6859    -4.9858     2.2863 H       
  63 H63           -3.1526    -5.4688     1.4014 H       
  64 H64           -2.9937    -6.1396    -0.9100 H       
  65 H65           -2.1508    -8.4533    -1.1545 H       
  66 H66           -0.6691    -8.0123    -0.2708 H       
  67 H67           -3.5180    -7.8977     0.8227 H       
  68 H68           -2.2745    -9.0968     1.2562 H       
  69 H69           -0.8360    -7.3073     2.1583 H       
  70 H70           -2.1196    -9.2595     3.5057 H       
  71 H71           -4.2474    -8.1392     5.1625 H       
  72 H72           -4.3128   -10.5243     4.4874 H       
  73 H73           -2.7668   -10.8036     5.3242 H       
  74 H74           -1.5313    -8.8840     6.3395 H       
  75 H75           -2.1971    -7.2371     6.2261 H       
  76 H76           -2.5672    -8.1932     8.4839 H       
  77 H77           -4.1132    -7.9139     7.6472 H       
  78 H78           -2.6326   -10.5783     7.8088 H       
  79 H79           -4.0830   -10.1385     8.7422 H       
  80 H80           -5.3487    -9.8335     6.6318 H       
  81 H81           -4.6829   -11.4804     6.7452 H       
  82 H82           -0.1278    -6.1981    -1.9553 H       
  83 H83           -1.5491    -6.7719    -2.8603 H       
  84 H84           -1.4049    -5.0515    -2.4272 H       
  85 H85           -4.6796    -2.2558    -1.0148 H       
  86 H86           -3.5469     0.3146    -0.7201 H       
  87 H87           -3.3706    -0.1846    -2.4195 H       
  88 H88           -4.9904    -0.0579    -1.6925 H       
@<TRIPOS>BOND
   1    1    2 2
   2    1    3 1
   3    1   45 1
   4    2    6 1
   5    2    5 1
   6    3    4 1
   7    3   46 1
   8    4    5 2
   9    4   12 1
  10    6    7 ar
  11    6    8 ar
  12    7   11 ar
  13    8    9 ar
  14    8   47 1
  15    9   10 ar
  16    9   27 1
  17   10   11 ar
  18   11   43 1
  19   12   13 am
  20   12   14 2
  21   13   15 1
  22   13   48 1
  23   15   16 ar
  24   15   17 ar
  25   16   21 1
  26   16   20 ar
  27   17   18 ar
  28   17   49 1
  29   18   19 ar
  30   18   50 1
  31   19   20 ar
  32   19   51 1
  33   20   52 1
  34   21   22 1
  35   21   26 1
  36   22   23 1
  37   22   53 1
  38   22   54 1
  39   23   24 1
  40   23   55 1
  41   23   56 1
  42   24   25 1
  43   24   57 1
  44   25   26 1
  45   25   58 1
  46   25   59 1
  47   26   60 1
  48   26   61 1
  49   27   28 1
  50   27   29 1
  51   28   32 1
  52   28   62 1
  53   28   63 1
  54   29   30 1
  55   29   42 1
  56   29   64 1
  57   30   31 1
  58   30   65 1
  59   30   66 1
  60   31   32 1
  61   31   67 1
  62   31   68 1
  63   32   33 1
  64   32   69 1
  65   33   34 am
  66   33   35 2
  67   34   36 1
  68   34   70 1
  69   36   37 1
  70   36   38 1
  71   36   71 1
  72   37   41 1
  73   37   72 1
  74   37   73 1
  75   38   39 1
  76   38   74 1
  77   38   75 1
  78   39   40 1
  79   39   76 1
  80   39   77 1
  81   40   41 1
  82   40   78 1
  83   40   79 1
  84   41   80 1
  85   41   81 1
  86   42   82 1
  87   42   83 1
  88   42   84 1
  89   43   44 1
  90   43   85 1
  91   44   86 1
  92   44   87 1
  93   44   88 1

#	End of record

