#	Name: ASD09116105
#	Creating user name:	WinNT
#	Creation time:	15. 06. 2019 21:20

#	Modifying user name:	WinNT
#	Modification time:	15. 06. 2019 21:20

#	Program:	/corina/corina34_cracker 3.40 0067  02.08.2006

@<TRIPOS>MOLECULE
ASD09116105
  58   62    0    0    0
SMALL
NO_CHARGES


@<TRIPOS>ATOM
   1 C1             0.0490     1.3878     0.2815 C.ar    
   2 N2             0.0520     0.0005     0.2226 N.pl3   
   3 N3             1.1621    -0.8306     0.0013 N.2     
   4 C4             0.7258    -2.0670     0.0229 C.2     
   5 N5            -0.5940    -2.0634     0.2448 N.2     
   6 C6            -1.0192    -0.8252     0.3736 C.2     
   7 N7            -2.3218    -0.4328     0.6110 N.pl3   
   8 N8             1.5119    -3.2045    -0.1571 N.pl3   
   9 C9             1.0016     2.0826     1.0599 C.ar    
  10 N10           -0.8444     2.0956    -0.3954 N.ar    
  11 C11           -0.8590     3.4180    -0.3484 C.ar    
  12 N12           -0.0034     4.1161     0.3602 N.ar    
  13 C13            0.9460     3.4993     1.0790 C.ar    
  14 C14            0.9493    -4.4745    -0.0015 C.ar    
  15 C15           -0.1025    -4.6623     0.8875 C.ar    
  16 C16           -0.6686    -5.9161     1.0358 C.ar    
  17 C17           -0.1929    -6.9786     0.3013 C.ar    
  18 C18            0.8770    -6.8111    -0.5808 C.ar    
  19 C19            1.4382    -5.5420    -0.7385 C.ar    
  20 C20            1.8744     4.2141     1.8466 C.ar    
  21 C21            2.8228     3.5381     2.5620 C.ar    
  22 C22            2.8796     2.1369     2.5380 C.ar    
  23 C23            1.9849     1.4144     1.8013 C.ar    
  24 O24            3.7225     4.2327     3.3060 O.3     
  25 C25            3.6149     5.6575     3.2905 C.3     
  26 O26            3.8340     1.4904     3.2591 O.3     
  27 C27            3.8404     0.0629     3.1940 C.3     
  28 C28           -0.8415    -8.3402     0.4124 C.3     
  29 C29           -0.3502    -9.0350     1.6826 C.3     
  30 C30            0.8946    -9.8649     1.3868 C.3     
  31 C31            1.9954    -8.9921     0.7842 C.3     
  32 N32            1.9049    -9.0448    -0.6871 N.am    
  33 C33            1.4256    -7.9554    -1.3256 C.2     
  34 O34            1.4476    -7.9197    -2.5404 O.2     
  35 H35           -3.0211    -1.0994     0.6976 H       
  36 H36           -2.5375     0.5096     0.6912 H       
  37 H37            2.4491    -3.1144    -0.3904 H       
  38 H38           -1.6084     3.9462    -0.9192 H       
  39 H39           -0.4779    -3.8292     1.4632 H       
  40 H40           -1.4842    -6.0613     1.7287 H       
  41 H41            2.2564    -5.3940    -1.4277 H       
  42 H42            1.8414     5.2933     1.8726 H       
  43 H43            2.0360     0.3357     1.7890 H       
  44 H44            3.7368     6.0200     2.2698 H       
  45 H45            2.6349     5.9520     3.6660 H       
  46 H46            4.3909     6.0874     3.9239 H       
  47 H47            3.9893    -0.2531     2.1615 H       
  48 H48            4.6493    -0.3254     3.8129 H       
  49 H49            2.8877    -0.3217     3.5579 H       
  50 H50           -1.9244    -8.2244     0.4571 H       
  51 H51           -0.5755    -8.9415    -0.4569 H       
  52 H52           -0.1121    -8.2837     2.4355 H       
  53 H53           -1.1360    -9.6871     2.0638 H       
  54 H54            1.2569   -10.3113     2.3128 H       
  55 H55            0.6390   -10.6571     0.6831 H       
  56 H56            1.8691    -7.9629     1.1202 H       
  57 H57            2.9696    -9.3631     1.1026 H       
  58 H58            2.1802    -9.8342    -1.1790 H       
@<TRIPOS>BOND
   1    1    2 1
   2    1    9 ar
   3    1   10 ar
   4    2    3 1
   5    2    6 1
   6    3    4 2
   7    4    5 1
   8    4    8 1
   9    5    6 2
  10    6    7 1
  11    7   35 1
  12    7   36 1
  13    8   14 1
  14    8   37 1
  15    9   13 ar
  16    9   23 ar
  17   10   11 ar
  18   11   12 ar
  19   11   38 1
  20   12   13 ar
  21   13   20 ar
  22   14   15 ar
  23   14   19 ar
  24   15   16 ar
  25   15   39 1
  26   16   17 ar
  27   16   40 1
  28   17   18 ar
  29   17   28 1
  30   18   19 ar
  31   18   33 1
  32   19   41 1
  33   20   21 ar
  34   20   42 1
  35   21   22 ar
  36   21   24 1
  37   22   23 ar
  38   22   26 1
  39   23   43 1
  40   24   25 1
  41   25   44 1
  42   25   45 1
  43   25   46 1
  44   26   27 1
  45   27   47 1
  46   27   48 1
  47   27   49 1
  48   28   29 1
  49   28   50 1
  50   28   51 1
  51   29   30 1
  52   29   52 1
  53   29   53 1
  54   30   31 1
  55   30   54 1
  56   30   55 1
  57   31   32 1
  58   31   56 1
  59   31   57 1
  60   32   33 am
  61   32   58 1
  62   33   34 2

#	End of record

