#	Name: ASD03430928
#	Creating user name:	WinNT
#	Creation time:	15. 06. 2019 20:41

#	Modifying user name:	WinNT
#	Modification time:	15. 06. 2019 20:41

#	Program:	/corina/corina34_cracker 3.40 0067  02.08.2006

@<TRIPOS>MOLECULE
ASD03430928
  56   61    0    0    0
SMALL
NO_CHARGES


@<TRIPOS>ATOM
   1 O1            -0.0175     1.4360     0.0099 O.3     
   2 C2             0.0021    -0.0041     0.0020 C.3     
   3 C3             1.3436    -0.3146    -0.6769 C.3     
   4 C4             2.1580     0.9230    -0.4125 C.ar    
   5 C5             1.2629     1.9055     0.0002 C.ar    
   6 C6             1.7498     3.1663     0.3306 C.ar    
   7 C7             3.1040     3.4415     0.2430 C.ar    
   8 C8             3.9880     2.4542    -0.1765 C.ar    
   9 C9             3.5064     1.1965    -0.5056 C.ar    
  10 N10            2.1460    -2.4048    -1.1377 N.am    
  11 C11            1.9826    -1.5493    -0.1090 C.2     
  12 C12            1.1773    -0.5906    -2.1416 C.ar    
  13 C13            0.6652     0.1338    -3.1942 C.ar    
  14 C14            0.6461    -0.4106    -4.4664 C.ar    
  15 C15            1.1433    -1.6832    -4.6779 C.ar    
  16 C16            1.6595    -2.4127    -3.6266 C.ar    
  17 C17            1.6832    -1.8727    -2.3435 C.ar    
  18 O18            2.2913    -1.7393     1.0484 O.2     
  19 C19            2.7400    -3.7376    -1.0064 C.3     
  20 O20            5.3238     2.7037    -0.2624 O.3     
  21 C21            5.7233     4.0785    -0.2736 C.3     
  22 C22            4.9555     4.8111     0.8349 C.3     
  23 O23            3.5545     4.6845     0.5687 O.3     
  24 C24            1.6573    -4.7431    -0.7103 C.ar    
  25 C25            1.0107    -5.3862    -1.7484 C.ar    
  26 C26            1.3168    -5.0246     0.5989 C.ar    
  27 C27            0.3201    -5.9502     0.8742 C.ar    
  28 C28           -0.3340    -6.5926    -0.1657 C.ar    
  29 C29            0.0130    -6.3123    -1.4783 C.ar    
  30 O30           -0.6267    -6.9400    -2.4998 O.3     
  31 C31           -1.6467    -7.8770    -2.1482 C.3     
  32 O32           -0.0140    -6.2269     2.1620 O.3     
  33 C33           -1.0488    -7.1900     2.3711 C.3     
  34 H34           -0.0175    -0.3971     1.0185 H       
  35 H35           -0.8284    -0.3992    -0.5830 H       
  36 H36            1.0664     3.9361     0.6573 H       
  37 H37            4.1897     0.4280    -0.8357 H       
  38 H38            0.2776     1.1279    -3.0270 H       
  39 H39            0.2435     0.1573    -5.2921 H       
  40 H40            1.1273    -2.1085    -5.6705 H       
  41 H41            2.0458    -3.4063    -3.7995 H       
  42 H42            3.2402    -4.0057    -1.9370 H       
  43 H43            3.4648    -3.7337    -0.1924 H       
  44 H44            6.7950     4.1513    -0.0883 H       
  45 H45            5.4858     4.5224    -1.2403 H       
  46 H46            5.1880     4.3630     1.8010 H       
  47 H47            5.2348     5.8646     0.8410 H       
  48 H48            1.2817    -5.1678    -2.7707 H       
  49 H49            1.8269    -4.5241     1.4086 H       
  50 H50           -1.1097    -7.3135     0.0465 H       
  51 H51           -2.4273    -7.3689    -1.5819 H       
  52 H52           -2.0753    -8.3047    -3.0546 H       
  53 H53           -1.2157    -8.6722    -1.5399 H       
  54 H54           -1.9679    -6.8444     1.8979 H       
  55 H55           -0.7515    -8.1434     1.9344 H       
  56 H56           -1.2164    -7.3169     3.4407 H       
@<TRIPOS>BOND
   1    1    2 1
   2    1    5 1
   3    2    3 1
   4    2   34 1
   5    2   35 1
   6    3    4 1
   7    3   11 1
   8    3   12 1
   9    4    5 ar
  10    4    9 ar
  11    5    6 ar
  12    6    7 ar
  13    6   36 1
  14    7    8 ar
  15    7   23 1
  16    8    9 ar
  17    8   20 1
  18    9   37 1
  19   10   11 am
  20   10   17 1
  21   10   19 1
  22   11   18 2
  23   12   13 ar
  24   12   17 ar
  25   13   14 ar
  26   13   38 1
  27   14   15 ar
  28   14   39 1
  29   15   16 ar
  30   15   40 1
  31   16   17 ar
  32   16   41 1
  33   19   24 1
  34   19   42 1
  35   19   43 1
  36   20   21 1
  37   21   22 1
  38   21   44 1
  39   21   45 1
  40   22   23 1
  41   22   46 1
  42   22   47 1
  43   24   25 ar
  44   24   26 ar
  45   25   29 ar
  46   25   48 1
  47   26   27 ar
  48   26   49 1
  49   27   28 ar
  50   27   32 1
  51   28   29 ar
  52   28   50 1
  53   29   30 1
  54   30   31 1
  55   31   51 1
  56   31   52 1
  57   31   53 1
  58   32   33 1
  59   33   54 1
  60   33   55 1
  61   33   56 1

#	End of record

