#	Name: ASD03091417
#	Creating user name:	WinNT
#	Creation time:	15. 06. 2019 20:30

#	Modifying user name:	WinNT
#	Modification time:	15. 06. 2019 20:30

#	Program:	/corina/corina34_cracker 3.40 0067  02.08.2006

@<TRIPOS>MOLECULE
ASD03091417
  31   33    0    0    0
SMALL
NO_CHARGES


@<TRIPOS>ATOM
   1 C1             0.1700     1.0381     0.6042 C.3     
   2 C2             0.3529    -0.4628     0.8944 C.3     
   3 N3             0.4767    -0.6261     2.3528 N.3     
   4 C4             0.4332     0.7088     2.9827 C.3     
   5 C5            -0.3100     1.6135     1.9753 C.3     
   6 C6             0.3427     3.0126     1.9876 C.3     
   7 N7             1.6321     2.8535     1.2959 N.am    
   8 C8             1.5533     1.6848     0.4109 C.3     
   9 C9             2.7084     3.6502     1.4495 C.2     
  10 O10            2.6357     4.6415     2.1484 O.2     
  11 C11            6.3138     3.6887     0.3770 C.ar    
  12 C12            5.1501     4.0329     1.0371 C.ar    
  13 C13            3.9800     3.3172     0.7661 C.ar    
  14 C14            4.0433     2.2782    -0.1674 C.ar    
  15 C15            5.2499     2.0015    -0.7807 C.ar    
  16 N16            6.3300     2.7016    -0.4964 N.ar    
  17 H17           -0.5129     1.2339    -0.2224 H       
  18 H18           -0.5132    -1.0171     0.5329 H       
  19 H19            1.2560    -0.8264     0.4041 H       
  20 H20           -0.2547    -1.2201     2.7136 H       
  21 H21           -0.1135     0.6641     3.9246 H       
  22 H22            1.4441     1.0806     3.1495 H       
  23 H23           -1.3925     1.6173     2.1029 H       
  24 H24           -0.2855     3.7262     1.4543 H       
  25 H25            0.5037     3.3444     3.0133 H       
  26 H26            2.3342     0.9707     0.6724 H       
  27 H27            1.6721     1.9987    -0.6261 H       
  28 H28            7.2218     4.2386     0.5763 H       
  29 H29            5.1443     4.8426     1.7518 H       
  30 H30            3.1624     1.7005    -0.4052 H       
  31 H31            5.3090     1.2009    -1.5032 H       
@<TRIPOS>BOND
   1    1    2 1
   2    1    8 1
   3    1    5 1
   4    1   17 1
   5    2    3 1
   6    2   18 1
   7    2   19 1
   8    3    4 1
   9    3   20 1
  10    4    5 1
  11    4   21 1
  12    4   22 1
  13    5    6 1
  14    5   23 1
  15    6    7 1
  16    6   24 1
  17    6   25 1
  18    7    8 1
  19    7    9 am
  20    8   26 1
  21    8   27 1
  22    9   10 2
  23    9   13 1
  24   11   12 ar
  25   11   16 ar
  26   11   28 1
  27   12   13 ar
  28   12   29 1
  29   13   14 ar
  30   14   15 ar
  31   14   30 1
  32   15   16 ar
  33   15   31 1

#	End of record

