#	Name: ASD01410461
#	Creating user name:	WinNT
#	Creation time:	15. 06. 2019 19:17

#	Modifying user name:	WinNT
#	Modification time:	15. 06. 2019 19:17

#	Program:	/corina/corina34_cracker 3.40 0067  02.08.2006

@<TRIPOS>MOLECULE
ASD01410461
  47   50    0    0    0
SMALL
NO_CHARGES


@<TRIPOS>ATOM
   1 S1            -0.0153     1.7580    -0.0875 S.3     
   2 C2            -0.0021     0.0045     0.1717 C.2     
   3 N3             1.2484    -0.3470     0.3603 N.2     
   4 C4             2.2049     0.5547     0.3325 C.2     
   5 C5             1.7441     1.9317     0.0797 C.2     
   6 O6             3.3803     0.2741     0.5029 O.2     
   7 C7             2.4877     3.0632    -0.0056 C.2     
   8 C8             0.5820     6.8323    -0.2853 C.ar    
   9 C9            -0.1130     5.7367     0.2295 C.ar    
  10 C10            0.4995     4.5191     0.3204 C.ar    
  11 C11            1.8264     4.3707    -0.1031 C.ar    
  12 C12            2.5216     5.4718    -0.6193 C.ar    
  13 C13            1.9043     6.6870    -0.7084 C.ar    
  14 C14           -0.0871     8.1509    -0.3884 C.ar    
  15 C15            0.6035     9.2479    -0.9020 C.ar    
  16 C16           -0.0247    10.4730    -0.9956 C.ar    
  17 C17           -1.3369    10.6140    -0.5806 C.ar    
  18 C18           -2.0270     9.5293    -0.0698 C.ar    
  19 C19           -1.4114     8.2977     0.0224 C.ar    
  20 S20           -0.8926    -2.4496     0.4353 S.o2    
  21 O21           -2.1934    -3.0212     0.4127 O.2     
  22 O22            0.1559    -2.8693    -0.4271 O.2     
  23 N23           -1.0907    -0.8262     0.1751 N.am    
  24 C24           -0.2919    -2.6447     2.0802 C.ar    
  25 C25           -1.1832    -2.7939     3.1270 C.ar    
  26 C26           -0.7158    -2.9470     4.4174 C.ar    
  27 C27            0.6513    -2.9510     4.6634 C.ar    
  28 C28            1.5439    -2.8008     3.6096 C.ar    
  29 C29            1.0698    -2.6538     2.3208 C.ar    
  30 N30            1.1275    -3.1051     5.9674 N.pl3   
  31 H31            3.5660     3.0024    -0.0019 H       
  32 H32           -1.1358     5.8518     0.5565 H       
  33 H33           -0.0386     3.6718     0.7191 H       
  34 H34            3.5449     5.3601    -0.9461 H       
  35 H35            2.4398     7.5363    -1.1063 H       
  36 H36            1.6281     9.1391    -1.2256 H       
  37 H37            0.5092    11.3234    -1.3932 H       
  38 H38           -1.8243    11.5749    -0.6554 H       
  39 H39           -3.0511     9.6455     0.2529 H       
  40 H40           -1.9527     7.4505     0.4169 H       
  41 H41           -1.9778    -0.4638     0.0250 H       
  42 H42           -2.2460    -2.7904     2.9351 H       
  43 H43           -1.4124    -3.0632     5.2345 H       
  44 H44            2.6074    -2.8035     3.7974 H       
  45 H45            1.7632    -2.5418     1.5005 H       
  46 H46            0.5033    -3.2096     6.7025 H       
  47 H47            2.0824    -3.1078     6.1379 H       
@<TRIPOS>BOND
   1    1    2 1
   2    1    5 1
   3    2    3 2
   4    2   23 1
   5    3    4 1
   6    4    5 1
   7    4    6 2
   8    5    7 2
   9    7   11 1
  10    7   31 1
  11    8    9 ar
  12    8   13 ar
  13    8   14 1
  14    9   10 ar
  15    9   32 1
  16   10   11 ar
  17   10   33 1
  18   11   12 ar
  19   12   13 ar
  20   12   34 1
  21   13   35 1
  22   14   15 ar
  23   14   19 ar
  24   15   16 ar
  25   15   36 1
  26   16   17 ar
  27   16   37 1
  28   17   18 ar
  29   17   38 1
  30   18   19 ar
  31   18   39 1
  32   19   40 1
  33   20   21 2
  34   20   22 2
  35   20   23 am
  36   20   24 1
  37   23   41 1
  38   24   25 ar
  39   24   29 ar
  40   25   26 ar
  41   25   42 1
  42   26   27 ar
  43   26   43 1
  44   27   28 ar
  45   27   30 1
  46   28   29 ar
  47   28   44 1
  48   29   45 1
  49   30   46 1
  50   30   47 1

#	End of record

