#	Name: ASD01910479
#	Creating user name:	WinNT
#	Creation time:	15. 06. 2019 19:55

#	Modifying user name:	WinNT
#	Modification time:	15. 06. 2019 19:55

#	Program:	/corina/corina34_cracker 3.40 0067  02.08.2006

@<TRIPOS>MOLECULE
ASD01910479
  43   46    0    0    0
SMALL
NO_CHARGES


@<TRIPOS>ATOM
   1 C1             1.7972     0.3932    -0.5079 C.ar    
   2 C2             1.5988    -1.0013    -0.0399 C.2     
   3 N3             0.5640    -1.8135    -0.3530 N.2     
   4 C4             0.7974    -2.9387     0.2754 C.2     
   5 O5             1.9459    -2.7863     0.9421 O.3     
   6 N6             2.3948    -1.6764     0.7477 N.2     
   7 C7            -0.0669    -4.1730     0.2518 C.3     
   8 C8             0.7364    -5.3484    -0.3096 C.3     
   9 C9            -0.1504    -6.5946    -0.3645 C.3     
  10 C10           -0.6073    -6.9542     1.0527 C.3     
  11 N11           -1.2538    -5.7795     1.6535 N.am    
  12 C12           -0.5229    -4.5052     1.6761 C.3     
  13 C13           -2.4937    -5.8693     2.1740 C.2     
  14 C14           -3.2626    -7.1192     2.0353 C.2     
  15 O15           -2.9782    -4.9191     2.7582 O.2     
  16 C16            2.9179     1.1143    -0.1014 C.ar    
  17 C17            3.0977     2.4105    -0.5399 C.ar    
  18 C18            2.1678     2.9938    -1.3816 C.ar    
  19 C19            1.0534     2.2825    -1.7883 C.ar    
  20 C20            0.8664     0.9838    -1.3600 C.ar    
  21 C21           -3.4017    -7.9838     0.8533 C.2     
  22 N22           -4.1762    -8.9581     1.2294 N.2     
  23 O23           -4.5217    -8.8501     2.3804 O.3     
  24 C24           -4.0211    -7.7672     2.9794 C.2     
  25 C25           -4.2515    -7.3356     4.4048 C.3     
  26 H26           -0.9388    -3.9946    -0.3775 H       
  27 H27            1.0829    -5.1048    -1.3139 H       
  28 H28            1.5949    -5.5417     0.3337 H       
  29 H29           -1.0218    -6.3938    -0.9878 H       
  30 H30            0.4154    -7.4254    -0.7862 H       
  31 H31           -1.3175    -7.7799     1.0092 H       
  32 H32            0.2557    -7.2430     1.6526 H       
  33 H33            0.3470    -4.5943     2.3268 H       
  34 H34           -1.1774    -3.7150     2.0438 H       
  35 H35            3.6443     0.6599     0.5561 H       
  36 H36            3.9658     2.9706    -0.2251 H       
  37 H37            2.3122     4.0085    -1.7221 H       
  38 H38            0.3303     2.7428    -2.4452 H       
  39 H39           -0.0040     0.4293    -1.6781 H       
  40 H40           -2.9556    -7.8399    -0.1197 H       
  41 H41           -4.9065    -8.0523     4.9001 H       
  42 H42           -3.2974    -7.2920     4.9300 H       
  43 H43           -4.7173    -6.3502     4.4152 H       
@<TRIPOS>BOND
   1    1    2 1
   2    1   16 ar
   3    1   20 ar
   4    2    3 1
   5    2    6 2
   6    3    4 2
   7    4    5 1
   8    4    7 1
   9    5    6 1
  10    7    8 1
  11    7   12 1
  12    7   26 1
  13    8    9 1
  14    8   27 1
  15    8   28 1
  16    9   10 1
  17    9   29 1
  18    9   30 1
  19   10   11 1
  20   10   31 1
  21   10   32 1
  22   11   12 1
  23   11   13 am
  24   12   33 1
  25   12   34 1
  26   13   14 1
  27   13   15 2
  28   14   21 1
  29   14   24 2
  30   16   17 ar
  31   16   35 1
  32   17   18 ar
  33   17   36 1
  34   18   19 ar
  35   18   37 1
  36   19   20 ar
  37   19   38 1
  38   20   39 1
  39   21   22 2
  40   21   40 1
  41   22   23 1
  42   23   24 1
  43   24   25 1
  44   25   41 1
  45   25   42 1
  46   25   43 1

#	End of record

