#	Name: ASD01913256
#	Creating user name:	WinNT
#	Creation time:	15. 06. 2019 20:01

#	Modifying user name:	WinNT
#	Modification time:	15. 06. 2019 20:01

#	Program:	/corina/corina34_cracker 3.40 0067  02.08.2006

@<TRIPOS>MOLECULE
ASD01913256
  47   50    0    0    0
SMALL
NO_CHARGES


@<TRIPOS>ATOM
   1 C1            -2.4083    -2.5756    -0.6248 C.3     
   2 N2            -1.1305    -1.9288    -0.3080 N.am    
   3 C3            -0.2004    -2.6629     0.5662 C.3     
   4 C4            -0.8609    -2.8094     1.9361 C.3     
   5 C5            -2.2820    -3.2883     1.7977 C.ar    
   6 C6            -2.8792    -3.8635     2.9133 C.ar    
   7 C7            -4.1807    -4.3154     2.8582 C.ar    
   8 C8            -4.9015    -4.1953     1.6830 C.ar    
   9 C9            -4.3093    -3.6272     0.5726 C.ar    
  10 C10           -2.9976    -3.1761     0.6269 C.ar    
  11 C11           -0.8201    -0.7121    -0.7975 C.2     
  12 O12            0.1954    -0.1517    -0.4340 O.2     
  13 C13           -1.7149    -0.0589    -1.7769 C.ar    
  14 C14           -2.3947    -0.8255    -2.7208 C.ar    
  15 C15           -3.2371    -0.2012    -3.6406 C.ar    
  16 C16           -3.3933     1.1882    -3.6091 C.ar    
  17 C17           -2.7161     1.9403    -2.6707 C.ar    
  18 C18           -1.8846     1.3272    -1.7539 C.ar    
  19 C19           -4.3024     1.8656    -4.6019 C.3     
  20 F20           -4.2955     3.2459    -4.3744 F       
  21 F21           -3.8517     1.6047    -5.9004 F       
  22 F22           -5.6040     1.3749    -4.4527 F       
  23 C23           -3.9398    -0.9807    -4.6149 C.1     
  24 C24           -4.5159    -1.6198    -5.4136 C.1     
  25 C25           -5.2186    -2.3994    -6.3879 C.ar    
  26 C26           -6.0609    -1.7668    -7.3062 C.ar    
  27 C27           -6.7318    -2.5341    -8.2408 C.ar    
  28 C28           -6.5413    -3.9096    -8.2301 C.ar    
  29 C29           -5.6931    -4.4710    -7.2932 C.ar    
  30 N30           -5.0608    -3.7192    -6.4158 N.ar    
  31 Cl31          -6.5424    -4.7568     1.6051 Cl      
  32 H32           -3.0980    -1.8362    -1.0318 H       
  33 H33           -2.2440    -3.3618    -1.3617 H       
  34 H34            0.0004    -3.6485     0.1462 H       
  35 H35            0.7315    -2.1059     0.6636 H       
  36 H36           -0.2968    -3.5278     2.5310 H       
  37 H37           -0.8556    -1.8438     2.4418 H       
  38 H38           -2.3186    -3.9576     3.8315 H       
  39 H39           -4.6362    -4.7623     3.7296 H       
  40 H40           -4.8707    -3.5338    -0.3453 H       
  41 H41           -2.2698    -1.8981    -2.7404 H       
  42 H42           -2.8401     3.0130    -2.6505 H       
  43 H43           -1.3613     1.9217    -1.0196 H       
  44 H44           -6.1863    -0.6943    -7.2861 H       
  45 H45           -7.3897    -2.0737    -8.9630 H       
  46 H46           -7.0516    -4.5356    -8.9471 H       
  47 H47           -5.5439    -5.5406    -7.2835 H       
@<TRIPOS>BOND
   1    1    2 1
   2    1   10 1
   3    1   32 1
   4    1   33 1
   5    2    3 1
   6    2   11 am
   7    3    4 1
   8    3   34 1
   9    3   35 1
  10    4    5 1
  11    4   36 1
  12    4   37 1
  13    5    6 ar
  14    5   10 ar
  15    6    7 ar
  16    6   38 1
  17    7    8 ar
  18    7   39 1
  19    8    9 ar
  20    8   31 1
  21    9   10 ar
  22    9   40 1
  23   11   12 2
  24   11   13 1
  25   13   14 ar
  26   13   18 ar
  27   14   15 ar
  28   14   41 1
  29   15   16 ar
  30   15   23 1
  31   16   17 ar
  32   16   19 1
  33   17   18 ar
  34   17   42 1
  35   18   43 1
  36   19   20 1
  37   19   21 1
  38   19   22 1
  39   23   24 3
  40   24   25 1
  41   25   26 ar
  42   25   30 ar
  43   26   27 ar
  44   26   44 1
  45   27   28 ar
  46   27   45 1
  47   28   29 ar
  48   28   46 1
  49   29   30 ar
  50   29   47 1

#	End of record

