#	Name: ASD06170151
#	Creating user name:	WinNT
#	Creation time:	15. 06. 2019 21:05

#	Modifying user name:	WinNT
#	Modification time:	15. 06. 2019 21:05

#	Program:	/corina/corina34_cracker 3.40 0067  02.08.2006

@<TRIPOS>MOLECULE
ASD06170151
  63   67    0    0    0
SMALL
NO_CHARGES


@<TRIPOS>ATOM
   1 C1            -1.1211    -1.1934    -3.1454 C.ar    
   2 C2            -0.3493    -0.9626    -2.0032 C.ar    
   3 C3             0.8569    -1.6649    -1.8288 C.ar    
   4 C4             1.2425    -2.5700    -2.8043 C.ar    
   5 C5             0.4307    -2.7520    -3.9138 C.ar    
   6 N6            -0.6885    -2.0895    -4.0582 N.ar    
   7 C7            -2.2931    -0.4207    -3.1671 C.2     
   8 C8            -2.4718     0.3880    -2.1166 C.2     
   9 S9            -1.1355     0.2398    -0.9884 S.3     
  10 C10           -3.6261     1.2827    -1.9351 C.2     
  11 O11           -4.5039     1.3212    -2.7761 O.2     
  12 N12           -3.7105     2.0593    -0.8368 N.am    
  13 O13            1.6262    -1.4601    -0.7295 O.3     
  14 C14            2.7335    -2.2337    -0.5719 C.ar    
  15 C15            3.9156    -1.8950    -1.2197 C.ar    
  16 C16            5.0409    -2.6813    -1.0589 C.ar    
  17 C17            4.9893    -3.8092    -0.2501 C.ar    
  18 C18            3.8077    -4.1461     0.3963 C.ar    
  19 C19            2.6846    -3.3569     0.2394 C.ar    
  20 C20            7.3524    -4.0418    -0.0873 C.2     
  21 O21            7.4638    -2.8315    -0.1482 O.2     
  22 N22            6.1287    -4.6067    -0.0869 N.am    
  23 N23           10.6648    -5.5386     0.0699 N.pl3   
  24 N24            9.8919    -6.7027     0.1122 N.am    
  25 C25            8.5891    -6.3553     0.0631 C.2     
  26 C26            8.5507    -4.8864    -0.0144 C.2     
  27 C27            9.8639    -4.4586    -0.0055 C.2     
  28 C28           12.1288    -5.4990     0.1081 C.3     
  29 C29           12.6761    -5.4820    -1.3205 C.3     
  30 C30           14.2050    -5.4407    -1.2805 C.3     
  31 C31           10.3863    -8.0087     0.1914 C.ar    
  32 C32           11.3431    -8.3341     1.1441 C.ar    
  33 C33           11.8289    -9.6247     1.2199 C.ar    
  34 C34           11.3637   -10.5925     0.3486 C.ar    
  35 C35           10.4115   -10.2717    -0.6015 C.ar    
  36 C36            9.9174    -8.9843    -0.6788 C.ar    
  37 O37            7.6336    -7.1088     0.0794 O.2     
  38 C38           10.3232    -3.0246    -0.0686 C.3     
  39 F39            3.9645    -0.7979    -2.0066 F       
  40 H40            2.1629    -3.1258    -2.7023 H       
  41 H41            0.7289    -3.4566    -4.6761 H       
  42 H42           -3.0035    -0.4754    -3.9787 H       
  43 H43           -3.0105     2.0286    -0.1661 H       
  44 H44           -4.4713     2.6490    -0.7171 H       
  45 H45            5.9597    -2.4190    -1.5622 H       
  46 H46            3.7675    -5.0231     1.0252 H       
  47 H47            1.7670    -3.6173     0.7459 H       
  48 H48            6.0373    -5.5657     0.0264 H       
  49 H49           12.4544    -4.6008     0.6327 H       
  50 H50           12.5025    -6.3801     0.6299 H       
  51 H51           12.3504    -6.3802    -1.8451 H       
  52 H52           12.3024    -4.6009    -1.8423 H       
  53 H53           14.5306    -4.5424    -0.7560 H       
  54 H54           14.5787    -6.3217    -0.7588 H       
  55 H55           14.5949    -5.4285    -2.2984 H       
  56 H56           11.7070    -7.5786     1.8247 H       
  57 H57           12.5731    -9.8782     1.9603 H       
  58 H58           11.7452   -11.6010     0.4099 H       
  59 H59           10.0505   -11.0297    -1.2808 H       
  60 H60            9.1704    -8.7354    -1.4181 H       
  61 H61           10.4588    -2.7321    -1.1098 H       
  62 H62            9.5741    -2.3825     0.3946 H       
  63 H63           11.2688    -2.9222     0.4637 H       
@<TRIPOS>BOND
   1    1    2 ar
   2    1    6 ar
   3    1    7 1
   4    2    3 ar
   5    2    9 1
   6    3    4 ar
   7    3   13 1
   8    4    5 ar
   9    4   40 1
  10    5    6 ar
  11    5   41 1
  12    7    8 2
  13    7   42 1
  14    8    9 1
  15    8   10 1
  16   10   11 2
  17   10   12 am
  18   12   43 1
  19   12   44 1
  20   13   14 1
  21   14   15 ar
  22   14   19 ar
  23   15   16 ar
  24   15   39 1
  25   16   17 ar
  26   16   45 1
  27   17   18 ar
  28   17   22 1
  29   18   19 ar
  30   18   46 1
  31   19   47 1
  32   20   21 2
  33   20   22 am
  34   20   26 1
  35   22   48 1
  36   23   24 1
  37   23   27 1
  38   23   28 1
  39   24   25 am
  40   24   31 1
  41   25   26 1
  42   25   37 2
  43   26   27 2
  44   27   38 1
  45   28   29 1
  46   28   49 1
  47   28   50 1
  48   29   30 1
  49   29   51 1
  50   29   52 1
  51   30   53 1
  52   30   54 1
  53   30   55 1
  54   31   32 ar
  55   31   36 ar
  56   32   33 ar
  57   32   56 1
  58   33   34 ar
  59   33   57 1
  60   34   35 ar
  61   34   58 1
  62   35   36 ar
  63   35   59 1
  64   36   60 1
  65   38   61 1
  66   38   62 1
  67   38   63 1

#	End of record

