#	Name: ASD03540313
#	Creating user name:	WinNT
#	Creation time:	15. 06. 2019 20:43

#	Modifying user name:	WinNT
#	Modification time:	15. 06. 2019 20:43

#	Program:	/corina/corina34_cracker 3.40 0067  02.08.2006

@<TRIPOS>MOLECULE
ASD03540313
  49   51    0    0    0
SMALL
NO_CHARGES


@<TRIPOS>ATOM
   1 C1            -0.0167     1.3794     0.0096 C.2     
   2 N2             0.0021    -0.0041     0.0020 N.am    
   3 C3             1.1565    -0.6857    -0.0122 C.2     
   4 N4             2.3495    -0.0696    -0.0203 N.am    
   5 C5             2.4351     1.2736    -0.0139 C.2     
   6 C6             1.1885     2.0715     0.0018 C.2     
   7 C7             1.0216     3.4582     0.0098 C.2     
   8 C8            -0.2600     3.8609     0.0230 C.2     
   9 S9            -1.3307     2.4709     0.0211 S.3     
  10 O10            3.5206     1.8236    -0.0205 O.2     
  11 C11            3.5757    -0.8710    -0.0359 C.3     
  12 C12           -1.2652    -0.7390     0.0102 C.3     
  13 O13            1.1220    -1.9010    -0.0176 O.2     
  14 C14            3.9829    -1.1387    -1.4619 C.2     
  15 C15           -0.6998     5.2580     0.0342 C.2     
  16 O16            0.1229     6.1551     0.0319 O.2     
  17 N17           -2.0155     5.5503     0.0471 N.am    
  18 C18           -2.4553     6.9477     0.0583 C.3     
  19 C19           -3.9614     7.0001     0.0715 C.ar    
  20 C20           -4.6413     7.0178     1.2751 C.ar    
  21 C21           -6.0232     7.0654     1.2906 C.ar    
  22 C22           -6.7277     7.0955     0.1029 C.ar    
  23 C23           -6.0477     7.0784    -1.1064 C.ar    
  24 C24           -4.6612     7.0362    -1.1192 C.ar    
  25 O25           -6.7386     7.1075    -2.2763 O.3     
  26 C26           -8.1640     7.1553    -2.1869 C.3     
  27 C27            5.1838    -0.8138    -1.8722 C.2     
  28 C28            5.5910    -1.0814    -3.2982 C.3     
  29 H29            1.8524     4.1482     0.0058 H       
  30 H30            4.3715    -0.3274     0.4733 H       
  31 H31            3.3978    -1.8174     0.4749 H       
  32 H32           -1.5893    -0.9158    -1.0154 H       
  33 H33           -1.1282    -1.6939     0.5176 H       
  34 H34           -2.0210    -0.1542     0.5344 H       
  35 H35            3.2846    -1.5983    -2.1457 H       
  36 H36           -2.6711     4.8354     0.0489 H       
  37 H37           -2.0667     7.4438     0.9477 H       
  38 H38           -2.0820     7.4533    -0.8322 H       
  39 H39           -4.0922     6.9939     2.2048 H       
  40 H40           -6.5521     7.0788     2.2321 H       
  41 H41           -7.8071     7.1320     0.1155 H       
  42 H42           -4.1296     7.0228    -2.0592 H       
  43 H43           -8.4642     8.0534    -1.6471 H       
  44 H44           -8.5905     7.1747    -3.1899 H       
  45 H45           -8.5245     6.2745    -1.6557 H       
  46 H46            5.8821    -0.3541    -1.1884 H       
  47 H47            4.9270    -0.5412    -3.9731 H       
  48 H48            6.6167    -0.7463    -3.4522 H       
  49 H49            5.5237    -2.1503    -3.5008 H       
@<TRIPOS>BOND
   1    1    2 1
   2    1    6 2
   3    1    9 1
   4    2    3 am
   5    2   12 1
   6    3    4 am
   7    3   13 2
   8    4    5 am
   9    4   11 1
  10    5    6 1
  11    5   10 2
  12    6    7 1
  13    7    8 2
  14    7   29 1
  15    8    9 1
  16    8   15 1
  17   11   14 1
  18   11   30 1
  19   11   31 1
  20   12   32 1
  21   12   33 1
  22   12   34 1
  23   14   27 2
  24   14   35 1
  25   15   16 2
  26   15   17 am
  27   17   18 1
  28   17   36 1
  29   18   19 1
  30   18   37 1
  31   18   38 1
  32   19   20 ar
  33   19   24 ar
  34   20   21 ar
  35   20   39 1
  36   21   22 ar
  37   21   40 1
  38   22   23 ar
  39   22   41 1
  40   23   24 ar
  41   23   25 1
  42   24   42 1
  43   25   26 1
  44   26   43 1
  45   26   44 1
  46   26   45 1
  47   27   28 1
  48   27   46 1
  49   28   47 1
  50   28   48 1
  51   28   49 1

#	End of record

