#	Name: ASD09650001
#	Creating user name:	WinNT
#	Creation time:	15. 06. 2019 21:22

#	Modifying user name:	WinNT
#	Modification time:	15. 06. 2019 21:22

#	Program:	/corina/corina34_cracker 3.40 0067  02.08.2006

@<TRIPOS>MOLECULE
ASD09650001
  49   52    0    0    0
SMALL
NO_CHARGES


@<TRIPOS>ATOM
   1 C1            -0.0181     1.4837     0.0102 C.3     
   2 C2             0.0021    -0.0041     0.0020 C.2     
   3 C3             1.1095    -0.7285    -0.0490 C.2     
   4 C4             2.4215    -0.0675    -0.1061 C.2     
   5 C5             2.5131     1.2509    -0.0870 C.2     
   6 C6             3.8934     1.8809    -0.1556 C.3     
   7 C7             3.8847     2.9329    -1.2688 C.3     
   8 C8             2.7571     3.9357    -1.0155 C.3     
   9 C9             2.7729     5.0118    -2.0856 C.3     
  10 C10            4.0190     5.9038    -2.1163 C.3     
  11 C11            3.5118     7.1849    -2.8329 C.3     
  12 C12            1.9783     7.2279    -2.6184 C.3     
  13 C13            1.6630     6.0347    -1.7222 C.3     
  14 C14            0.3299     5.3495    -1.9533 C.3     
  15 C15            0.2364     4.1880    -0.9511 C.3     
  16 C16            1.4022     3.2156    -1.1045 C.3     
  17 C17            1.3272     2.1567     0.0010 C.3     
  18 O18            1.0330    -2.0853    -0.0483 O.3     
  19 O19            1.6027     8.4457    -1.9718 O.3     
  20 C20            1.7931     6.4410    -0.2529 C.3     
  21 C21            1.4501     2.9168     1.3231 C.3     
  22 H22            2.8837     4.3914    -0.0335 H       
  23 H23            1.3257     2.7131    -2.0688 H       
  24 H24            2.5965     4.5723    -3.0673 H       
  25 H25           -0.5742     1.8218    -0.8642 H       
  26 H26           -0.5574     1.8123     0.8986 H       
  27 H27           -0.9434    -0.5246     0.0404 H       
  28 H28            3.3193    -0.6651    -0.1637 H       
  29 H29            4.1288     2.3555     0.7970 H       
  30 H30            4.6363     1.1152    -0.3791 H       
  31 H31            4.8406     3.4567    -1.2811 H       
  32 H32            3.7265     2.4435    -2.2298 H       
  33 H33            4.3533     6.1343    -1.1048 H       
  34 H34            4.8171     5.4317    -2.6893 H       
  35 H35            3.9759     8.0679    -2.3935 H       
  36 H36            3.7393     7.1329    -3.8976 H       
  37 H37            1.4606     7.1308    -3.5726 H       
  38 H38           -0.4842     6.0539    -1.7822 H       
  39 H39            0.2816     4.9654    -2.9723 H       
  40 H40            0.2406     4.5910     0.0616 H       
  41 H41           -0.6981     3.6513    -1.1149 H       
  42 H42            0.1298    -2.4283    -0.0085 H       
  43 H43            1.8166     9.2417    -2.4775 H       
  44 H44            2.7699     6.8951    -0.0866 H       
  45 H45            1.0116     7.1589    -0.0039 H       
  46 H46            1.6904     5.5585     0.3786 H       
  47 H47            1.3740     2.2153     2.1539 H       
  48 H48            2.4144     3.4235     1.3626 H       
  49 H49            0.6496     3.6531     1.3947 H       
@<TRIPOS>BOND
   1    1    2 1
   2    1   17 1
   3    1   25 1
   4    1   26 1
   5    2    3 2
   6    2   27 1
   7    3    4 1
   8    3   18 1
   9    4    5 2
  10    4   28 1
  11    5    6 1
  12    5   17 1
  13    6    7 1
  14    6   29 1
  15    6   30 1
  16    7    8 1
  17    7   31 1
  18    7   32 1
  19    8    9 1
  20    8   22 1
  21    8   16 1
  22    9   10 1
  23    9   13 1
  24    9   24 1
  25   10   11 1
  26   10   33 1
  27   10   34 1
  28   11   12 1
  29   11   35 1
  30   11   36 1
  31   12   13 1
  32   12   19 1
  33   12   37 1
  34   13   14 1
  35   13   20 1
  36   14   15 1
  37   14   38 1
  38   14   39 1
  39   15   16 1
  40   15   40 1
  41   15   41 1
  42   16   23 1
  43   16   17 1
  44   17   21 1
  45   18   42 1
  46   19   43 1
  47   20   44 1
  48   20   45 1
  49   20   46 1
  50   21   47 1
  51   21   48 1
  52   21   49 1

#	End of record

