#	Name: ASD09116179
#	Creating user name:	WinNT
#	Creation time:	15. 06. 2019 21:21

#	Modifying user name:	WinNT
#	Modification time:	15. 06. 2019 21:21

#	Program:	/corina/corina34_cracker 3.40 0067  02.08.2006

@<TRIPOS>MOLECULE
ASD09116179
  81   88    0    0    0
SMALL
NO_CHARGES


@<TRIPOS>ATOM
   1 N1             0.0810     1.1597     0.1760 N.2     
   2 C2             0.0768    -0.2494     0.6073 C.3     
   3 C3             1.3016     1.5922     0.3412 C.2     
   4 N4             2.1291     0.6475     0.8330 N.2     
   5 C5             1.5129    -0.4885     1.0311 C.2     
   6 N6             1.7026     2.8790     0.0438 N.pl3   
   7 C7             3.0553     3.2317     0.1423 C.ar    
   8 C8             4.0503     2.2885    -0.1085 C.ar    
   9 C9             3.4202     4.5250     0.4848 C.ar    
  10 N10            4.6917     4.8648     0.5786 N.ar    
  11 C11            5.6628     3.9942     0.3524 C.ar    
  12 C12            5.3722     2.6808    -0.0000 C.ar    
  13 N13            2.0474    -1.6417     1.5154 N.pl3   
  14 C14           -0.8606    -0.4465     1.7707 C.ar    
  15 C15           -1.6579     0.6033     2.1787 C.ar    
  16 N16           -0.9038    -1.6266     2.3749 N.ar    
  17 C17           -1.7013    -1.8301     3.3816 C.ar    
  18 C18           -2.5408    -0.8206     3.8672 C.ar    
  19 C19           -2.5324     0.4259     3.2620 C.ar    
  20 C20           -1.8412    -3.1304     4.1516 C.3     
  21 C21           -1.5543    -2.7871     5.6279 C.3     
  22 C22           -2.4568    -1.6313     6.0654 C.3     
  23 N23           -3.3300    -1.2072     4.9533 N.3     
  24 C24           -4.1872    -2.3410     4.5549 C.3     
  25 C25           -3.4045     1.5254     3.7413 C.ar    
  26 N26            6.9905     4.3995     0.4636 N.3     
  27 C27            7.0785     5.8168     0.8375 C.3     
  28 C28            8.5419     6.2635     0.8084 C.3     
  29 C29            9.3514     5.4073     1.7861 C.3     
  30 C30            9.2037     3.9320     1.4035 C.3     
  31 C31            7.7211     3.5529     1.4154 C.3     
  32 C32           -3.3328    -3.5161     4.0743 C.3     
  33 N33           10.7675     5.7923     1.7197 N.3     
  34 C34           10.9562     7.1890     2.1529 C.3     
  35 C35           11.9678     7.1735     3.3182 C.3     
  36 C36           12.7249     5.8361     3.1059 C.3     
  37 C37           11.5952     4.9175     2.5773 C.3     
  38 C38           -2.8658     2.7857     3.9949 C.ar    
  39 C39           -3.6823     3.8052     4.4404 C.ar    
  40 C40           -5.0329     3.5783     4.6352 C.ar    
  41 C41           -5.5730     2.3296     4.3851 C.ar    
  42 C42           -4.7671     1.3040     3.9344 C.ar    
  43 H43           -0.1966    -0.9040    -0.2203 H       
  44 H44            1.0482     3.5391    -0.2333 H       
  45 H45            3.7952     1.2751    -0.3808 H       
  46 H46            2.6550     5.2625     0.6767 H       
  47 H47            6.1687     1.9748    -0.1831 H       
  48 H48            2.9866    -1.6777     1.7552 H       
  49 H49            1.4894    -2.4281     1.6208 H       
  50 H50           -1.6090     1.5540     1.6687 H       
  51 H51           -1.1809    -3.9100     3.7718 H       
  52 H52           -1.7542    -3.6598     6.2496 H       
  53 H53           -0.5101    -2.4943     5.7368 H       
  54 H54           -3.0737    -1.9542     6.9040 H       
  55 H55           -1.8380    -0.7901     6.3777 H       
  56 H56           -4.7856    -2.6572     5.4094 H       
  57 H57           -4.8501    -2.0251     3.7494 H       
  58 H58            6.5020     6.4150     0.1318 H       
  59 H59            6.6771     5.9531     1.8417 H       
  60 H60            8.9400     6.1404    -0.1989 H       
  61 H61            8.6084     7.3114     1.1010 H       
  62 H62            8.9786     5.5600     2.7990 H       
  63 H63            9.6122     3.7723     0.4057 H       
  64 H64            9.7431     3.3141     2.1214 H       
  65 H65            7.3167     3.6998     2.4169 H       
  66 H66            7.6115     2.5068     1.1295 H       
  67 H67           -3.5931    -3.7572     3.0437 H       
  68 H68           -3.5175    -4.3832     4.7085 H       
  69 H69           11.3497     7.7831     1.3281 H       
  70 H70           10.0068     7.6036     2.4916 H       
  71 H71           12.6518     8.0192     3.2460 H       
  72 H72           11.4506     7.1755     4.2776 H       
  73 H73           13.5159     5.9486     2.3644 H       
  74 H74           13.1252     5.4603     4.0476 H       
  75 H75           11.0034     4.5285     3.4059 H       
  76 H76           12.0143     4.0990     1.9920 H       
  77 H77           -1.8115     2.9638     3.8435 H       
  78 H78           -3.2660     4.7820     4.6375 H       
  79 H79           -5.6680     4.3790     4.9843 H       
  80 H80           -6.6281     2.1581     4.5390 H       
  81 H81           -5.1898     0.3294     3.7394 H       
@<TRIPOS>BOND
   1    1    2 1
   2    1    3 2
   3    2   14 1
   4    2    5 1
   5    2   43 1
   6    3    4 1
   7    3    6 1
   8    4    5 2
   9    5   13 1
  10    6    7 1
  11    6   44 1
  12    7    8 ar
  13    7    9 ar
  14    8   12 ar
  15    8   45 1
  16    9   10 ar
  17    9   46 1
  18   10   11 ar
  19   11   12 ar
  20   11   26 1
  21   12   47 1
  22   13   48 1
  23   13   49 1
  24   14   15 ar
  25   14   16 ar
  26   15   19 ar
  27   15   50 1
  28   16   17 ar
  29   17   18 ar
  30   17   20 1
  31   18   19 ar
  32   18   23 1
  33   19   25 1
  34   20   21 1
  35   20   32 1
  36   20   51 1
  37   21   22 1
  38   21   52 1
  39   21   53 1
  40   22   23 1
  41   22   54 1
  42   22   55 1
  43   23   24 1
  44   24   32 1
  45   24   56 1
  46   24   57 1
  47   25   38 ar
  48   25   42 ar
  49   26   27 1
  50   26   31 1
  51   27   28 1
  52   27   58 1
  53   27   59 1
  54   28   29 1
  55   28   60 1
  56   28   61 1
  57   29   30 1
  58   29   33 1
  59   29   62 1
  60   30   31 1
  61   30   63 1
  62   30   64 1
  63   31   65 1
  64   31   66 1
  65   32   67 1
  66   32   68 1
  67   33   34 1
  68   33   37 1
  69   34   35 1
  70   34   69 1
  71   34   70 1
  72   35   36 1
  73   35   71 1
  74   35   72 1
  75   36   37 1
  76   36   73 1
  77   36   74 1
  78   37   75 1
  79   37   76 1
  80   38   39 ar
  81   38   77 1
  82   39   40 ar
  83   39   78 1
  84   40   41 ar
  85   40   79 1
  86   41   42 ar
  87   41   80 1
  88   42   81 1

#	End of record

