#	Name: ASD01884162
#	Creating user name:	WinNT
#	Creation time:	15. 06. 2019 19:47

#	Modifying user name:	WinNT
#	Modification time:	15. 06. 2019 19:47

#	Program:	/corina/corina34_cracker 3.40 0067  02.08.2006

@<TRIPOS>MOLECULE
ASD01884162
  17   18    0    0    0
SMALL
NO_CHARGES


@<TRIPOS>ATOM
   1 C1            -0.0167     1.3823     0.0096 C.ar    
   2 C2             0.0021    -0.0041     0.0020 C.ar    
   3 C3            -1.1860    -0.7017     0.0096 C.ar    
   4 C4            -2.3990     0.0201     0.0251 C.ar    
   5 C5            -2.3297     1.4177     0.0319 C.ar    
   6 N6            -1.1558     2.0411     0.0295 N.ar    
   7 N7            -3.6635    -0.4448     0.0346 N.2     
   8 C8            -4.6201     0.4154     0.0484 C.2     
   9 S9            -3.9749     2.0507     0.0510 S.3     
  10 O10           -5.9373     0.1052     0.0597 O.3     
  11 Cl11           1.4811     2.2600     0.0001 Cl      
  12 C12           -6.8606     1.1957     0.0743 C.3     
  13 H13            0.9429    -0.5342    -0.0102 H       
  14 H14           -1.1892    -1.7817     0.0035 H       
  15 H15           -7.8796     0.8090     0.0823 H       
  16 H16           -6.6944     1.8005     0.9658 H       
  17 H17           -6.7119     1.8096    -0.8140 H       
@<TRIPOS>BOND
   1    1    2 ar
   2    1   11 1
   3    1    6 ar
   4    2    3 ar
   5    2   13 1
   6    3    4 ar
   7    3   14 1
   8    4    5 ar
   9    4    7 1
  10    5    6 ar
  11    5    9 1
  12    7    8 2
  13    8    9 1
  14    8   10 1
  15   10   12 1
  16   12   15 1
  17   12   16 1
  18   12   17 1

#	End of record

