#	Name: ASD01700023
#	Creating user name:	WinNT
#	Creation time:	15. 06. 2019 19:22

#	Modifying user name:	WinNT
#	Modification time:	15. 06. 2019 19:22

#	Program:	/corina/corina34_cracker 3.40 0067  02.08.2006

@<TRIPOS>MOLECULE
ASD01700023
  57   60    0    0    0
SMALL
NO_CHARGES


@<TRIPOS>ATOM
   1 N1            -0.0178     1.4648     0.0101 N.3     
   2 N2             5.9520    -5.1715     7.4490 N.2     
   3 N3             6.4329    -5.9200     8.5280 N.pl3   
   4 C4             4.8789    -5.7401     6.9523 C.2     
   5 C5             4.0818    -5.2511     5.8049 C.ar    
   6 C6             7.5583    -5.6069     9.2906 C.ar    
   7 C7             5.6212    -7.0134     8.7184 C.ar    
   8 C8             4.6125    -6.9494     7.7406 C.ar    
   9 C9             3.6561    -8.9680     8.5896 C.ar    
  10 C10            4.6501    -9.0351     9.5575 C.ar    
  11 C11            3.6309    -7.9413     7.6896 C.ar    
  12 C12            5.6280    -8.0688     9.6265 C.ar    
  13 C13            3.9229    -3.8791     5.5997 C.ar    
  14 C14            2.5882    -4.3352     3.6556 C.ar    
  15 C15            2.7517    -5.7082     3.8588 C.ar    
  16 C16            3.1821    -3.4239     4.5332 C.ar    
  17 C17            3.4928    -6.1621     4.9256 C.ar    
  18 C18            8.6630    -5.0141     8.6869 C.ar    
  19 C19            9.7939    -4.9848    10.8054 C.ar    
  20 C20            8.6805    -5.5746    11.4099 C.ar    
  21 C21            9.7752    -4.7038     9.4367 C.ar    
  22 C22            7.5716    -5.8828    10.6544 C.ar    
  23 C23            1.7931    -3.8474     2.5109 C.2     
  24 N24            1.6356    -2.5232     2.3153 N.am    
  25 O25            1.2804    -4.6403     1.7450 O.2     
  26 C26           10.9844    -4.6525    11.6126 C.2     
  27 O27           10.9969    -4.8919    12.8046 O.2     
  28 N28           12.0575    -4.0837    11.0282 N.am    
  29 C29            0.8467    -2.0393     1.1796 C.3     
  30 C30            0.8260    -0.5095     1.1880 C.3     
  31 C31            0.0021    -0.0041     0.0020 C.3     
  32 C32           13.2389    -3.7539    11.8292 C.3     
  33 H33            0.9191     1.8392     0.0032 H       
  34 H34           -0.5563     1.8234    -0.7642 H       
  35 H35            2.8963    -9.7345     8.5487 H       
  36 H36            4.6562    -9.8535    10.2622 H       
  37 H37            2.8539    -7.8964     6.9408 H       
  38 H38            6.3976    -8.1292    10.3817 H       
  39 H39            4.3813    -3.1751     6.2783 H       
  40 H40            2.2928    -6.4129     3.1811 H       
  41 H41            3.0592    -2.3627     4.3746 H       
  42 H42            3.6195    -7.2231     5.0826 H       
  43 H43            8.6481    -4.7975     7.6289 H       
  44 H44            8.6918    -5.7930    12.4675 H       
  45 H45           10.6324    -4.2440     8.9674 H       
  46 H46            6.7109    -6.3389    11.1208 H       
  47 H47            2.0446    -1.8907     2.9264 H       
  48 H48           12.0475    -3.8927    10.0772 H       
  49 H49            1.2940    -2.3915     0.2501 H       
  50 H50           -0.1727    -2.4169     1.2582 H       
  51 H51            0.3787    -0.1573     2.1176 H       
  52 H52            1.8454    -0.1318     1.1095 H       
  53 H53           -1.0174    -0.3817     0.0806 H       
  54 H54            0.4494    -0.3563    -0.9275 H       
  55 H55           12.9614    -3.0490    12.6129 H       
  56 H56           13.6362    -4.6625    12.2818 H       
  57 H57           13.9982    -3.3049    11.1889 H       
@<TRIPOS>BOND
   1    1   31 1
   2    1   33 1
   3    1   34 1
   4    2    3 1
   5    2    4 2
   6    3    6 1
   7    3    7 1
   8    4    5 1
   9    4    8 1
  10    5   13 ar
  11    5   17 ar
  12    6   18 ar
  13    6   22 ar
  14    7    8 ar
  15    7   12 ar
  16    8   11 ar
  17    9   10 ar
  18    9   11 ar
  19    9   35 1
  20   10   12 ar
  21   10   36 1
  22   11   37 1
  23   12   38 1
  24   13   16 ar
  25   13   39 1
  26   14   15 ar
  27   14   16 ar
  28   14   23 1
  29   15   17 ar
  30   15   40 1
  31   16   41 1
  32   17   42 1
  33   18   21 ar
  34   18   43 1
  35   19   20 ar
  36   19   21 ar
  37   19   26 1
  38   20   22 ar
  39   20   44 1
  40   21   45 1
  41   22   46 1
  42   23   24 am
  43   23   25 2
  44   24   29 1
  45   24   47 1
  46   26   27 2
  47   26   28 am
  48   28   32 1
  49   28   48 1
  50   29   30 1
  51   29   49 1
  52   29   50 1
  53   30   31 1
  54   30   51 1
  55   30   52 1
  56   31   53 1
  57   31   54 1
  58   32   55 1
  59   32   56 1
  60   32   57 1

#	End of record

