#	Name: ASD01816727
#	Creating user name:	WinNT
#	Creation time:	15. 06. 2019 19:35

#	Modifying user name:	WinNT
#	Modification time:	15. 06. 2019 19:35

#	Program:	/corina/corina34_cracker 3.40 0067  02.08.2006

@<TRIPOS>MOLECULE
ASD01816727
  68   72    0    0    0
SMALL
NO_CHARGES


@<TRIPOS>ATOM
   1 C1            -0.0167     1.3960     0.0152 C.2     
   2 C2             0.0025    -0.0052    -0.0028 C.2     
   3 C3             1.1989    -0.6602    -0.0249 C.2     
   4 C4             2.3921     0.0815    -0.0293 C.2     
   5 N5             2.3439     1.4491    -0.0110 N.am    
   6 C6             1.1421     2.0927     0.0106 C.2     
   7 C7             3.6230    -0.5886    -0.0519 C.2     
   8 C8             4.7879     0.1231    -0.0564 C.2     
   9 C9             4.7340     1.5284    -0.0380 C.2     
  10 C10            3.4813     2.1731    -0.0151 C.2     
  11 C11            3.6604    -2.0950    -0.0708 C.3     
  12 O12            3.4256     3.3913     0.0009 O.2     
  13 C13            5.9710     2.3159    -0.0418 C.2     
  14 N14            7.1647     1.6963     0.0459 N.am    
  15 O15            5.9198     3.5292    -0.1241 O.2     
  16 N16            3.7771    -2.5646    -1.4579 N.3     
  17 C17            4.0539    -4.0060    -1.5040 C.3     
  18 C18            4.3127    -4.4310    -2.9512 C.3     
  19 C19            3.0835    -4.1009    -3.8025 C.3     
  20 C20            2.7881    -2.6020    -3.6986 C.3     
  21 C21            2.5735    -2.2300    -2.2297 C.3     
  22 C22            3.3548    -4.4622    -5.2402 C.ar    
  23 N23            4.5926    -4.6933    -5.6316 N.ar    
  24 C24            1.9255    -4.8657    -3.3119 C.1     
  25 N25            1.0317    -5.4560    -2.9333 N.1     
  26 C26            4.8773    -5.0124    -6.8792 C.ar    
  27 C27            3.8780    -5.1160    -7.8279 C.ar    
  28 C28            2.5637    -4.8801    -7.4537 C.ar    
  29 C29            2.3027    -4.5530    -6.1321 C.ar    
  30 C30            8.4025     2.4710    -0.0711 C.3     
  31 C31            9.5336     1.5594    -0.5570 C.3     
  32 C32           10.8390     2.3580    -0.6008 C.3     
  33 O33           11.1135     2.8911     0.6963 O.3     
  34 C34           10.1126     3.7879     1.1823 C.3     
  35 C35            8.7780     3.0468     1.2978 C.3     
  36 C36            1.4453    -4.9824    -8.4584 C.3     
  37 O37            9.2267     1.0737    -1.8654 O.3     
  38 H38           -0.9603     1.9212     0.0283 H       
  39 H39           -0.9228    -0.5622     0.0012 H       
  40 H40            1.2286    -1.7397    -0.0386 H       
  41 H41            1.1154     3.1723     0.0249 H       
  42 H42            5.7397    -0.3869    -0.0734 H       
  43 H43            4.5179    -2.4444     0.5044 H       
  44 H44            2.7435    -2.4868     0.3695 H       
  45 H45            7.2041     0.7373     0.1865 H       
  46 H46            4.9326    -4.2266    -0.8980 H       
  47 H47            3.1963    -4.5532    -1.1126 H       
  48 H48            5.1786    -3.8944    -3.3388 H       
  49 H49            4.5026    -5.5037    -2.9870 H       
  50 H50            3.6300    -2.0366    -4.0980 H       
  51 H51            1.8888    -2.3680    -4.2684 H       
  52 H52            1.7228    -2.7855    -1.8349 H       
  53 H53            2.3770    -1.1608    -2.1508 H       
  54 H54            5.9034    -5.1946    -7.1627 H       
  55 H55            4.1176    -5.3770    -8.8482 H       
  56 H56            1.2910    -4.3631    -5.8053 H       
  57 H57            8.2581     3.2838    -0.7828 H       
  58 H58            9.6437     0.7188     0.1281 H       
  59 H59           11.6556     1.7033    -0.9050 H       
  60 H60           10.7418     3.1745    -1.3163 H       
  61 H61           10.4060     4.1632     2.1627 H       
  62 H62           10.0059     4.6231     0.4902 H       
  63 H63            8.0037     3.7400     1.6262 H       
  64 H64            8.8728     2.2362     2.0203 H       
  65 H65            1.0619    -6.0027    -8.4727 H       
  66 H66            0.6442    -4.2971    -8.1815 H       
  67 H67            1.8208    -4.7215    -9.4479 H       
  68 H68            9.9016     0.4887    -2.2361 H       
@<TRIPOS>BOND
   1    1    2 1
   2    1    6 2
   3    1   38 1
   4    2    3 2
   5    2   39 1
   6    3    4 1
   7    3   40 1
   8    4    5 1
   9    4    7 2
  10    5    6 1
  11    5   10 am
  12    6   41 1
  13    7    8 1
  14    7   11 1
  15    8    9 2
  16    8   42 1
  17    9   10 1
  18    9   13 1
  19   10   12 2
  20   11   16 1
  21   11   43 1
  22   11   44 1
  23   13   15 2
  24   13   14 am
  25   14   30 1
  26   14   45 1
  27   16   17 1
  28   16   21 1
  29   17   18 1
  30   17   46 1
  31   17   47 1
  32   18   19 1
  33   18   48 1
  34   18   49 1
  35   19   20 1
  36   19   22 1
  37   19   24 1
  38   20   21 1
  39   20   50 1
  40   20   51 1
  41   21   52 1
  42   21   53 1
  43   22   23 ar
  44   22   29 ar
  45   23   26 ar
  46   24   25 3
  47   26   27 ar
  48   26   54 1
  49   27   28 ar
  50   27   55 1
  51   28   29 ar
  52   28   36 1
  53   29   56 1
  54   30   31 1
  55   30   35 1
  56   30   57 1
  57   31   32 1
  58   31   37 1
  59   31   58 1
  60   32   33 1
  61   32   59 1
  62   32   60 1
  63   33   34 1
  64   34   35 1
  65   34   61 1
  66   34   62 1
  67   35   63 1
  68   35   64 1
  69   36   65 1
  70   36   66 1
  71   36   67 1
  72   37   68 1

#	End of record

