#	Name: ASD01230359
#	Creating user name:	WinNT
#	Creation time:	15. 06. 2019 19:14

#	Modifying user name:	WinNT
#	Modification time:	15. 06. 2019 19:14

#	Program:	/corina/corina34_cracker 3.40 0067  02.08.2006

@<TRIPOS>MOLECULE
ASD01230359
  41   44    0    0    0
SMALL
NO_CHARGES


@<TRIPOS>ATOM
   1 S1             0.0791     1.7750     1.3203 S.o2    
   2 N2            -0.1050     0.2591     0.6831 N.am    
   3 C3             0.6423    -0.1823    -0.2994 C.2     
   4 N4             1.6402     0.5193    -0.9139 N.pl3   
   5 C5             1.9767     1.9101    -0.5987 C.3     
   6 C6             1.8036     2.1797     0.8988 C.3     
   7 C7             0.3589    -1.5586    -0.7590 C.2     
   8 C8             1.1308    -2.1033    -1.7621 C.2     
   9 C9             2.1616    -1.3343    -2.3197 C.2     
  10 C10            2.3901    -0.0797    -1.8955 C.2     
  11 C11           -0.7397    -2.3417    -0.1490 C.ar    
  12 C12           -0.4542    -3.4969     0.5797 C.ar    
  13 C13           -1.4798    -4.2236     1.1462 C.ar    
  14 C14           -2.7956    -3.8073     0.9921 C.ar    
  15 C15           -3.0835    -2.6581     0.2676 C.ar    
  16 C16           -2.0626    -1.9230    -0.2966 C.ar    
  17 O17           -3.8039    -4.5265     1.5511 O.3     
  18 C18           -4.3852    -5.4996     0.8014 C.ar    
  19 C19           -3.8767    -5.8079    -0.4522 C.ar    
  20 C20           -4.4688    -6.7976    -1.2124 C.ar    
  21 C21           -5.5686    -7.4812    -0.7247 C.ar    
  22 C22           -6.0773    -7.1753     0.5253 C.ar    
  23 C23           -5.4846    -6.1901     1.2910 C.ar    
  24 Cl24          -6.3116    -8.7239    -1.6825 Cl      
  25 O25           -0.8242     2.5857     0.5814 O.2     
  26 O26           -0.0684     1.5941     2.7220 O.2     
  27 H27            3.0117     2.1023    -0.8813 H       
  28 H28            1.3216     2.5748    -1.1617 H       
  29 H29            2.0015     3.2301     1.1124 H       
  30 H30            2.4837     1.5488     1.4710 H       
  31 H31            0.9442    -3.1073    -2.1136 H       
  32 H32            2.7792    -1.7549    -3.0995 H       
  33 H33            3.1966     0.4803    -2.3453 H       
  34 H34            0.5689    -3.8216     0.6994 H       
  35 H35           -1.2595    -5.1179     1.7103 H       
  36 H36           -4.1080    -2.3373     0.1497 H       
  37 H37           -2.2868    -1.0267    -0.8558 H       
  38 H38           -3.0187    -5.2741    -0.8335 H       
  39 H39           -4.0732    -7.0379    -2.1882 H       
  40 H40           -6.9358    -7.7100     0.9041 H       
  41 H41           -5.8795    -5.9545     2.2682 H       
@<TRIPOS>BOND
   1    1    2 am
   2    1    6 1
   3    1   25 2
   4    1   26 2
   5    2    3 2
   6    3    4 1
   7    3    7 1
   8    4    5 1
   9    4   10 1
  10    5    6 1
  11    5   27 1
  12    5   28 1
  13    6   29 1
  14    6   30 1
  15    7    8 2
  16    7   11 1
  17    8    9 1
  18    8   31 1
  19    9   10 2
  20    9   32 1
  21   10   33 1
  22   11   12 ar
  23   11   16 ar
  24   12   13 ar
  25   12   34 1
  26   13   14 ar
  27   13   35 1
  28   14   15 ar
  29   14   17 1
  30   15   16 ar
  31   15   36 1
  32   16   37 1
  33   17   18 1
  34   18   19 ar
  35   18   23 ar
  36   19   20 ar
  37   19   38 1
  38   20   21 ar
  39   20   39 1
  40   21   22 ar
  41   21   24 1
  42   22   23 ar
  43   22   40 1
  44   23   41 1

#	End of record

