#	Name: ASD02440001
#	Creating user name:	WinNT
#	Creation time:	15. 06. 2019 20:21

#	Modifying user name:	WinNT
#	Modification time:	15. 06. 2019 20:21

#	Program:	/corina/corina34_cracker 3.40 0067  02.08.2006

@<TRIPOS>MOLECULE
ASD02440001
  45   47    0    0    0
SMALL
NO_CHARGES


@<TRIPOS>ATOM
   1 C1            -0.0946     1.5396     0.2017 C.2     
   2 C2            -0.0160     0.0671     0.2814 C.ar    
   3 C3            -1.3042    -0.3932    -0.0266 C.ar    
   4 O4            -2.0779     0.6858    -0.2666 O.3     
   5 C5            -1.3852     1.8223    -0.1309 C.2     
   6 C6             1.0001    -0.8360     0.5758 C.ar    
   7 C7             0.7344    -2.1887     0.5633 C.ar    
   8 C8            -0.5388    -2.6466     0.2591 C.ar    
   9 C9            -1.5530    -1.7603    -0.0341 C.ar    
  10 C10           -1.9458     3.2072    -0.3276 C.3     
  11 C11           -1.9065     3.5670    -1.8142 C.3     
  12 C12            0.9921     2.5008     0.4382 C.2     
  13 C13            1.2522     2.9997     1.8030 C.ar    
  14 O14            1.6774     2.8853    -0.4910 O.2     
  15 C15            2.3399     3.8434     2.0452 C.ar    
  16 C16            2.5794     4.3070     3.3204 C.ar    
  17 C17            1.7406     3.9364     4.3658 C.ar    
  18 C18            0.6577     3.0968     4.1289 C.ar    
  19 C19            0.4081     2.6341     2.8553 C.ar    
  20 S20           -0.8631    -4.3785     0.2472 S.o2    
  21 O21           -1.9926    -4.5694    -0.5936 O.2     
  22 O22            0.3861    -5.0192     0.0279 O.2     
  23 N23           -1.3419    -4.7981     1.7759 N.am    
  24 C24           -2.7611    -4.7553     2.1366 C.3     
  25 C25           -0.3462    -5.2120     2.7676 C.3     
  26 O26            1.9798     4.3951     5.6208 O.3     
  27 Br27          -0.4786     2.5962     5.5551 Br      
  28 Br28           4.0509     5.4481     3.6495 Br      
  29 H29            1.9917    -0.4796     0.8124 H       
  30 H30            1.5201    -2.8939     0.7909 H       
  31 H31           -2.5407    -2.1284    -0.2697 H       
  32 H32           -2.9765     3.2356     0.0260 H       
  33 H33           -1.3486     3.9243     0.2357 H       
  34 H34           -2.3119     4.5687    -1.9564 H       
  35 H35           -0.8758     3.5386    -2.1677 H       
  36 H36           -2.5037     2.8500    -2.3774 H       
  37 H37            2.9919     4.1314     1.2338 H       
  38 H38           -0.4332     1.9821     2.6721 H       
  39 H39           -3.2191    -5.7215     1.9248 H       
  40 H40           -2.8595    -4.5317     3.1989 H       
  41 H41           -3.2608    -3.9810     1.5546 H       
  42 H42            0.6471    -5.1816     2.3198 H       
  43 H43           -0.3806    -4.5352     3.6214 H       
  44 H44           -0.5642    -6.2271     3.0996 H       
  45 H45            1.5391     5.2314     5.8245 H       
@<TRIPOS>BOND
   1    1    2 1
   2    1   12 1
   3    1    5 2
   4    2    3 ar
   5    2    6 ar
   6    3    4 1
   7    3    9 ar
   8    4    5 1
   9    5   10 1
  10    6    7 ar
  11    6   29 1
  12    7    8 ar
  13    7   30 1
  14    8    9 ar
  15    8   20 1
  16    9   31 1
  17   10   11 1
  18   10   32 1
  19   10   33 1
  20   11   34 1
  21   11   35 1
  22   11   36 1
  23   12   13 1
  24   12   14 2
  25   13   15 ar
  26   13   19 ar
  27   15   16 ar
  28   15   37 1
  29   16   17 ar
  30   16   28 1
  31   17   18 ar
  32   17   26 1
  33   18   19 ar
  34   18   27 1
  35   19   38 1
  36   20   21 2
  37   20   22 2
  38   20   23 am
  39   23   24 1
  40   23   25 1
  41   24   39 1
  42   24   40 1
  43   24   41 1
  44   25   42 1
  45   25   43 1
  46   25   44 1
  47   26   45 1

#	End of record

