#	Name: ASD01810015
#	Creating user name:	WinNT
#	Creation time:	15. 06. 2019 19:23

#	Modifying user name:	WinNT
#	Modification time:	15. 06. 2019 19:23

#	Program:	/corina/corina34_cracker 3.40 0067  02.08.2006

@<TRIPOS>MOLECULE
ASD01810015
  38   42    0    0    0
SMALL
NO_CHARGES


@<TRIPOS>ATOM
   1 N1            -0.0163     1.3479     0.0095 N.am    
   2 C2             0.0021    -0.0041     0.0020 C.2     
   3 C3            -1.2676    -0.7370    -0.3572 C.3     
   4 C4            -2.5159    -0.1238     0.2727 C.3     
   5 C5            -2.5124     1.3731     0.1211 C.ar    
   6 C6            -1.2664     1.9810     0.0316 C.ar    
   7 C7            -3.6307     2.1615     0.0684 C.ar    
   8 C8            -3.5038     3.5488    -0.0482 C.ar    
   9 C9            -2.2645     4.1483    -0.0985 C.ar    
  10 C10           -1.1117     3.3587    -0.0514 C.ar    
  11 C11            0.9560     2.3071     0.0053 C.ar    
  12 C12            0.3355     3.5838    -0.0418 C.ar    
  13 C13            1.0865     4.7578    -0.0674 C.ar    
  14 C14            2.4641     4.6278    -0.0390 C.ar    
  15 C15            3.0763     3.3836     0.0131 C.ar    
  16 C16            2.3446     2.2029     0.0386 C.ar    
  17 C17           -4.7737     4.3582    -0.1222 C.3     
  18 N18           -4.5090     5.7654     0.1900 N.3     
  19 C19           -3.4209     6.2788    -0.6574 C.3     
  20 C20           -2.1091     5.6435    -0.1966 C.3     
  21 O21            1.0140    -0.6129     0.2769 O.2     
  22 O22            4.4334     3.3181     0.0422 O.3     
  23 H23           -1.3822    -0.7281    -1.4412 H       
  24 H24           -1.1803    -1.7716    -0.0255 H       
  25 H25           -3.4010    -0.5315    -0.2156 H       
  26 H26           -2.5437    -0.3767     1.3326 H       
  27 H27           -4.6112     1.7113     0.1165 H       
  28 H28            0.6134     5.7278    -0.1082 H       
  29 H29            3.0776     5.5164    -0.0582 H       
  30 H30            2.8337     1.2409     0.0795 H       
  31 H31           -5.1881     4.2852    -1.1277 H       
  32 H32           -5.4947     3.9613     0.5924 H       
  33 H33           -5.3435     6.3225     0.0839 H       
  34 H34           -3.6106     6.0155    -1.6979 H       
  35 H35           -3.3586     7.3625    -0.5581 H       
  36 H36           -1.8374     6.0434     0.7803 H       
  37 H37           -1.3222     5.8789    -0.9131 H       
  38 H38            4.8086     3.3275     0.9333 H       
@<TRIPOS>BOND
   1    1    2 am
   2    1   11 1
   3    1    6 1
   4    2    3 1
   5    2   21 2
   6    3    4 1
   7    3   23 1
   8    3   24 1
   9    4    5 1
  10    4   25 1
  11    4   26 1
  12    5    6 ar
  13    5    7 ar
  14    6   10 ar
  15    7    8 ar
  16    7   27 1
  17    8    9 ar
  18    8   17 1
  19    9   10 ar
  20    9   20 1
  21   10   12 1
  22   11   12 ar
  23   11   16 ar
  24   12   13 ar
  25   13   14 ar
  26   13   28 1
  27   14   15 ar
  28   14   29 1
  29   15   16 ar
  30   15   22 1
  31   16   30 1
  32   17   18 1
  33   17   31 1
  34   17   32 1
  35   18   19 1
  36   18   33 1
  37   19   20 1
  38   19   34 1
  39   19   35 1
  40   20   36 1
  41   20   37 1
  42   22   38 1

#	End of record

