#	Name: ASD01150772
#	Creating user name:	WinNT
#	Creation time:	15. 06. 2019 19:05

#	Modifying user name:	WinNT
#	Modification time:	15. 06. 2019 19:05

#	Program:	/corina/corina34_cracker 3.40 0067  02.08.2006

@<TRIPOS>MOLECULE
ASD01150772
  55   58    0    0    0
SMALL
NO_CHARGES


@<TRIPOS>ATOM
   1 C1             0.0487     1.3188     0.1065 C.2     
   2 C2            -0.5049     0.9912    -1.2563 C.3     
   3 F3            -1.6420     0.1882    -1.1170 F       
   4 F4            -0.8485     2.1755    -1.9170 F       
   5 F5             0.4618     0.3059    -2.0000 F       
   6 N6             3.6562     2.0515     0.4838 N.ar    
   7 C7             2.5270     1.4024     0.3743 C.ar    
   8 C8             1.2999     2.0749     0.2275 C.ar    
   9 C9             1.2876     3.4811     0.1978 C.ar    
  10 C10            2.5290     4.1532     0.3189 C.ar    
  11 C11            2.5992     5.5518     0.2987 C.ar    
  12 C12            3.8257     6.1721     0.4198 C.ar    
  13 C13            4.9928     5.4140     0.5615 C.ar    
  14 C14            4.9462     4.0543     0.5835 C.ar    
  15 C15            3.7141     3.3901     0.4631 C.ar    
  16 C16            0.0239     4.2314     0.0450 C.ar    
  17 C17           -0.9532     4.1700     1.0410 C.ar    
  18 C18           -2.1304     4.8734     0.8920 C.ar    
  19 C19           -2.3445     5.6381    -0.2413 C.ar    
  20 C20           -1.3808     5.7031    -1.2323 C.ar    
  21 C21           -0.1965     5.0098    -1.0935 C.ar    
  22 C22            2.5397    -0.1043     0.4056 C.3     
  23 N23            3.9026     7.5662     0.4004 N.3     
  24 C24            2.7459     8.1688     1.0880 C.3     
  25 C25            3.3005     9.0738     2.2082 C.3     
  26 C26            4.7447     9.3769     1.7296 C.3     
  27 C27            5.1396     8.0378     1.0585 C.3     
  28 N28            2.5168    10.3120     2.3113 N.3     
  29 C29            1.1340    10.0275     2.7175 C.3     
  30 C30            3.1519    11.2616     3.2348 C.3     
  31 O31           -0.5429     0.9615     1.1035 O.2     
  32 H32            1.7003     6.1403     0.1887 H       
  33 H33            5.9449     5.9153     0.6544 H       
  34 H34            5.8574     3.4850     0.6933 H       
  35 H35           -0.7877     3.5730     1.9256 H       
  36 H36           -2.8868     4.8268     1.6614 H       
  37 H37           -3.2682     6.1866    -0.3529 H       
  38 H38           -1.5548     6.3013    -2.1145 H       
  39 H39            0.5566     5.0649    -1.8656 H       
  40 H40            2.5154    -0.4464     1.4402 H       
  41 H41            1.6669    -0.4861    -0.1240 H       
  42 H42            3.4462    -0.4700    -0.0768 H       
  43 H43            2.1648     8.7642     0.3838 H       
  44 H44            2.1214     7.3860     1.5186 H       
  45 H45            3.3133     8.5440     3.1607 H       
  46 H46            4.7535    10.1932     1.0073 H       
  47 H47            5.3976     9.5979     2.5741 H       
  48 H48            5.4676     7.3192     1.8096 H       
  49 H49            5.9242     8.2005     0.3196 H       
  50 H50            1.1351     9.5326     3.6886 H       
  51 H51            0.5761    10.9614     2.7862 H       
  52 H52            0.6648     9.3775     1.9789 H       
  53 H53            4.1778    11.4470     2.9165 H       
  54 H54            2.5955    12.1988     3.2317 H       
  55 H55            3.1538    10.8435     4.2414 H       
@<TRIPOS>BOND
   1    1    2 1
   2    1    8 1
   3    1   31 2
   4    2    3 1
   5    2    4 1
   6    2    5 1
   7    6    7 ar
   8    6   15 ar
   9    7    8 ar
  10    7   22 1
  11    8    9 ar
  12    9   10 ar
  13    9   16 1
  14   10   11 ar
  15   10   15 ar
  16   11   12 ar
  17   11   32 1
  18   12   13 ar
  19   12   23 1
  20   13   14 ar
  21   13   33 1
  22   14   15 ar
  23   14   34 1
  24   16   17 ar
  25   16   21 ar
  26   17   18 ar
  27   17   35 1
  28   18   19 ar
  29   18   36 1
  30   19   20 ar
  31   19   37 1
  32   20   21 ar
  33   20   38 1
  34   21   39 1
  35   22   40 1
  36   22   41 1
  37   22   42 1
  38   23   24 1
  39   23   27 1
  40   24   25 1
  41   24   43 1
  42   24   44 1
  43   25   26 1
  44   25   28 1
  45   25   45 1
  46   26   27 1
  47   26   46 1
  48   26   47 1
  49   27   48 1
  50   27   49 1
  51   28   29 1
  52   28   30 1
  53   29   50 1
  54   29   51 1
  55   29   52 1
  56   30   53 1
  57   30   54 1
  58   30   55 1

#	End of record

