#	Name: ASD00241022
#	Creating user name:	WinNT
#	Creation time:	15. 06. 2019 18:33

#	Modifying user name:	WinNT
#	Modification time:	15. 06. 2019 18:33

#	Program:	/corina/corina34_cracker 3.40 0067  02.08.2006

@<TRIPOS>MOLECULE
ASD00241022
  47   49    0    0    0
SMALL
NO_CHARGES


@<TRIPOS>ATOM
   1 C1            -0.2321     0.9432    -0.5091 C.3     
   2 C2            -0.1540    -0.5784    -0.2540 C.3     
   3 O3             1.1607    -0.7920     0.3045 O.3     
   4 C4             2.0402     0.0671    -0.4534 C.3     
   5 C5             1.2446     1.3776    -0.6433 C.3     
   6 O6             1.4887     1.9283    -1.9391 O.3     
   7 N7            -1.1865    -0.9891     0.7007 N.pl3   
   8 C8            -2.4891    -1.3010     0.4035 C.ar    
   9 C9            -3.0964    -1.6339     1.6263 C.ar    
  10 N10           -2.1507    -1.5103     2.5883 N.2     
  11 C11           -1.0277    -1.1373     2.0465 C.2     
  12 N12           -3.2132    -1.3437    -0.7100 N.ar    
  13 C13           -4.4820    -1.6925    -0.6722 C.ar    
  14 N14           -5.0958    -2.0132     0.4521 N.ar    
  15 C15           -4.4530    -1.9998     1.6152 C.ar    
  16 N16           -5.1047    -2.3379     2.7884 N.pl3   
  17 C17            3.3278     0.3342     0.3287 C.3     
  18 N18            4.0892    -0.9151     0.4597 N.3     
  19 C19            4.5658    -1.3810    -0.8494 C.3     
  20 C20            5.2064    -0.7546     1.4000 C.3     
  21 C21            5.8105    -2.1029     1.6973 C.2     
  22 C22            7.1010    -2.2857     1.5664 C.2     
  23 C23            7.9732    -1.1656     1.0607 C.3     
  24 N24            9.0920    -0.9585     1.9900 N.3     
  25 H25           -0.7759     1.1484    -1.4311 H       
  26 H26           -0.7036     1.4481     0.3340 H       
  27 H27           -0.2621    -1.1262    -1.1901 H       
  28 H28            2.2685    -0.3816    -1.4201 H       
  29 H29            1.5031     2.0973     0.1335 H       
  30 H30            1.0137     2.7526    -2.1120 H       
  31 H31           -0.1075    -0.9639     2.5846 H       
  32 H32           -5.0420    -1.7170    -1.5954 H       
  33 H33           -6.0415    -2.5885     2.7679 H       
  34 H34           -4.6246    -2.3243     3.6311 H       
  35 H35            3.9290     1.0722    -0.2024 H       
  36 H36            3.0789     0.7137     1.3197 H       
  37 H37            5.2118    -0.6227    -1.2918 H       
  38 H38            5.1262    -2.3073    -0.7235 H       
  39 H39            3.7128    -1.5586    -1.5044 H       
  40 H40            5.9634    -0.1069     0.9576 H       
  41 H41            4.8416    -0.3080     2.3249 H       
  42 H42            5.1794    -2.9184     2.0183 H       
  43 H43            7.5399    -3.2391     1.8209 H       
  44 H44            8.3621    -1.4242     0.0758 H       
  45 H45            7.3852    -0.2506     0.9904 H       
  46 H46            9.6149    -1.8112     2.1222 H       
  47 H47            9.6920    -0.2118     1.6728 H       
@<TRIPOS>BOND
   1    1    2 1
   2    1    5 1
   3    1   25 1
   4    1   26 1
   5    2    3 1
   6    2    7 1
   7    2   27 1
   8    3    4 1
   9    4    5 1
  10    4   17 1
  11    4   28 1
  12    5    6 1
  13    5   29 1
  14    6   30 1
  15    7    8 1
  16    7   11 1
  17    8    9 ar
  18    8   12 ar
  19    9   10 1
  20    9   15 ar
  21   10   11 2
  22   11   31 1
  23   12   13 ar
  24   13   14 ar
  25   13   32 1
  26   14   15 ar
  27   15   16 1
  28   16   33 1
  29   16   34 1
  30   17   18 1
  31   17   35 1
  32   17   36 1
  33   18   19 1
  34   18   20 1
  35   19   37 1
  36   19   38 1
  37   19   39 1
  38   20   21 1
  39   20   40 1
  40   20   41 1
  41   21   22 2
  42   21   42 1
  43   22   23 1
  44   22   43 1
  45   23   24 1
  46   23   44 1
  47   23   45 1
  48   24   46 1
  49   24   47 1

#	End of record

