#	Name: ASD02030350
#	Creating user name:	WinNT
#	Creation time:	15. 06. 2019 20:15

#	Modifying user name:	WinNT
#	Modification time:	15. 06. 2019 20:15

#	Program:	/corina/corina34_cracker 3.40 0067  02.08.2006

@<TRIPOS>MOLECULE
ASD02030350
  32   34    0    0    0
SMALL
NO_CHARGES


@<TRIPOS>ATOM
   1 N1             0.0005     1.4131     0.1180 N.3     
   2 C2             0.0101    -0.0549     0.0397 C.3     
   3 C3             0.7034    -0.4920    -1.2544 C.3     
   4 N4             2.0474     0.1031    -1.2969 N.am    
   5 C5             2.1682     1.5586    -1.1101 C.3     
   6 C6             1.3642     1.9498     0.1306 C.3     
   7 C7             3.1379    -0.6622    -1.5006 C.2     
   8 O8             3.0322    -1.8741    -1.5395 O.2     
   9 C9             4.4509    -0.0352    -1.6754 C.2     
  10 C10            5.6480    -0.6886    -1.7551 C.2     
  11 O11            4.6883     1.2883    -1.7916 O.3     
  12 C12            6.0044     1.4928    -1.9371 C.2     
  13 C13            6.6350     0.2951    -1.9197 C.2     
  14 Br14           8.4958     0.0027    -2.0861 Br      
  15 Br15           6.8422     3.1761    -2.1383 Br      
  16 C16            1.4335     3.4471     0.4559 C.3     
  17 C17            2.6764     3.1224     1.3025 C.3     
  18 C18            2.1118     1.6985     1.4462 C.3     
  19 H19           -0.5381     1.8119    -0.6362 H       
  20 H20            0.5491    -0.4610     0.8957 H       
  21 H21           -1.0148    -0.4259     0.0462 H       
  22 H22            0.7842    -1.5788    -1.2764 H       
  23 H23            0.1249    -0.1494    -2.1124 H       
  24 H24            3.2156     1.8255    -0.9688 H       
  25 H25            1.7712     2.0757    -1.9837 H       
  26 H26            5.8044    -1.7559    -1.7017 H       
  27 H27            1.6463     4.0731    -0.4106 H       
  28 H28            0.5875     3.8065     1.0418 H       
  29 H29            3.6102     3.1671     0.7418 H       
  30 H30            2.7197     3.6717     2.2429 H       
  31 H31            1.4534     1.5742     2.3060 H       
  32 H32            2.8700     0.9186     1.3758 H       
@<TRIPOS>BOND
   1    1    2 1
   2    1    6 1
   3    1   19 1
   4    2    3 1
   5    2   20 1
   6    2   21 1
   7    3    4 1
   8    3   22 1
   9    3   23 1
  10    4    5 1
  11    4    7 am
  12    5    6 1
  13    5   24 1
  14    5   25 1
  15    6   16 1
  16    6   18 1
  17    7    8 2
  18    7    9 1
  19    9   10 2
  20    9   11 1
  21   10   13 1
  22   10   26 1
  23   11   12 1
  24   12   13 2
  25   12   15 1
  26   13   14 1
  27   16   17 1
  28   16   27 1
  29   16   28 1
  30   17   18 1
  31   17   29 1
  32   17   30 1
  33   18   31 1
  34   18   32 1

#	End of record

