#	Name: ASD08150210
#	Creating user name:	WinNT
#	Creation time:	15. 06. 2019 21:15

#	Modifying user name:	WinNT
#	Modification time:	15. 06. 2019 21:15

#	Program:	/corina/corina34_cracker 3.40 0067  02.08.2006

@<TRIPOS>MOLECULE
ASD08150210
  45   49    0    0    0
SMALL
NO_CHARGES


@<TRIPOS>ATOM
   1 N1            -0.0155     1.2942     0.0092 N.2     
   2 C2             0.0021    -0.0041     0.0020 C.2     
   3 N3             1.1489    -0.7359    -0.0124 N.am    
   4 C4             2.3562    -0.1243    -0.0202 C.2     
   5 C5             2.3706     1.3443    -0.0129 C.ar    
   6 C6             3.5626     2.0708    -0.0195 C.ar    
   7 C7             3.5166     3.4510    -0.0117 C.ar    
   8 C8             2.2986     4.1157     0.0030 C.ar    
   9 C9             1.1119     3.4164     0.0097 C.ar    
  10 C10            1.1301     2.0208     0.0021 C.ar    
  11 O11            3.3903    -0.7666    -0.0323 O.2     
  12 F12            4.7514     1.4291    -0.0329 F       
  13 C13            1.0795    -2.1352    -0.0188 C.ar    
  14 C14            1.0563    -2.8369     1.1807 C.ar    
  15 C15            0.9878    -4.2171     1.1703 C.ar    
  16 C16            0.9430    -4.8994    -0.0318 C.ar    
  17 C17            0.9660    -4.2037    -1.2264 C.ar    
  18 C18            1.0281    -2.8235    -1.2231 C.ar    
  19 Cl19           1.1137    -1.9808     2.6898 Cl      
  20 C20           -1.3144    -0.7374     0.0106 C.3     
  21 N21           -2.4131     0.2316     0.0263 N.pl3   
  22 N22           -4.8812     2.0597     0.0594 N.2     
  23 C23           -6.1342     2.4092     0.0731 C.2     
  24 N24           -6.9273     1.2989     0.0755 N.pl3   
  25 C25           -6.1014     0.2036     0.0623 C.ar    
  26 N26           -6.2901    -1.1122     0.0575 N.ar    
  27 C27           -5.2580    -1.9402     0.0432 C.ar    
  28 N28           -4.0035    -1.5082     0.0322 N.ar    
  29 C29           -3.7245    -0.2095     0.0365 C.ar    
  30 C30           -4.7900     0.7070     0.0520 C.ar    
  31 N31           -5.4955    -3.3049     0.0390 N.pl3   
  32 H32            4.4360     4.0176    -0.0168 H       
  33 H33            2.2809     5.1955     0.0096 H       
  34 H34            0.1708     3.9461     0.0208 H       
  35 H35            0.9697    -4.7634     2.1018 H       
  36 H36            0.8902    -5.9781    -0.0374 H       
  37 H37            0.9308    -4.7397    -2.1633 H       
  38 H38            1.0411    -2.2809    -2.1568 H       
  39 H39           -1.3903    -1.3583    -0.8820 H       
  40 H40           -1.3734    -1.3679     0.8979 H       
  41 H41           -2.2211     1.1824     0.0296 H       
  42 H42           -6.4936     3.4276     0.0815 H       
  43 H43           -7.8972     1.2863     0.0851 H       
  44 H44           -6.4062    -3.6387     0.0466 H       
  45 H45           -4.7511    -3.9267     0.0286 H       
@<TRIPOS>BOND
   1    1    2 2
   2    1   10 1
   3    2    3 1
   4    2   20 1
   5    3    4 am
   6    3   13 1
   7    4    5 1
   8    4   11 2
   9    5    6 ar
  10    5   10 ar
  11    6    7 ar
  12    6   12 1
  13    7    8 ar
  14    7   32 1
  15    8    9 ar
  16    8   33 1
  17    9   10 ar
  18    9   34 1
  19   13   14 ar
  20   13   18 ar
  21   14   15 ar
  22   14   19 1
  23   15   16 ar
  24   15   35 1
  25   16   17 ar
  26   16   36 1
  27   17   18 ar
  28   17   37 1
  29   18   38 1
  30   20   21 1
  31   20   39 1
  32   20   40 1
  33   21   29 1
  34   21   41 1
  35   22   23 2
  36   22   30 1
  37   23   24 1
  38   23   42 1
  39   24   25 1
  40   24   43 1
  41   25   26 ar
  42   25   30 ar
  43   26   27 ar
  44   27   28 ar
  45   27   31 1
  46   28   29 ar
  47   29   30 ar
  48   31   44 1
  49   31   45 1

#	End of record

