#	Name: ASD01140293
#	Creating user name:	WinNT
#	Creation time:	15. 06. 2019 19:00

#	Modifying user name:	WinNT
#	Modification time:	15. 06. 2019 19:00

#	Program:	/corina/corina34_cracker 3.40 0067  02.08.2006

@<TRIPOS>MOLECULE
ASD01140293
  56   60    0    0    0
SMALL
NO_CHARGES


@<TRIPOS>ATOM
   1 C1            -0.0166     1.3703     0.0096 C.2     
   2 C2             5.1734     2.3204     4.5330 C.ar    
   3 C3             4.6184     2.9683     5.6401 C.ar    
   4 C4             3.3422     3.5245     5.5545 C.ar    
   5 C5             2.6350     3.4284     4.3665 C.ar    
   6 C6             3.2134     2.8067     3.2426 C.ar    
   7 C7             4.4760     2.2415     3.3464 C.ar    
   8 C8             1.2415     3.9463     4.2578 C.2     
   9 N9             0.9791     4.7906     3.3212 N.2     
  10 C10            1.9148     5.1614     2.2654 C.3     
  11 C11            2.0690     3.9980     1.2925 C.3     
  12 N12            2.5133     2.8094     2.0524 N.am    
  13 C13            1.9530     1.7490     1.4382 C.2     
  14 N14            0.8451     3.5970     0.6159 N.pl3   
  15 C15            0.8619     2.1785     0.6413 C.2     
  16 O16            2.3276     0.5955     1.5505 O.2     
  17 C17            0.1880     3.5021     5.2000 C.ar    
  18 C18           -1.1104     3.9977     5.0828 C.ar    
  19 C19            0.4894     2.5824     6.2042 C.ar    
  20 C20           -0.4961     2.1722     7.0785 C.ar    
  21 C21           -1.7811     2.6710     6.9601 C.ar    
  22 C22           -2.0873     3.5799     5.9631 C.ar    
  23 C23            5.3596     3.0606     6.8619 C.1     
  24 C24            5.9672     3.1363     7.8636 C.1     
  25 N25            0.3266     0.0696    -0.2728 N.pl3   
  26 C26            1.7213    -0.2975    -0.5614 C.3     
  27 C27            2.1086    -1.4797     0.3334 C.3     
  28 N28            1.1320    -2.5630     0.1579 N.3     
  29 C29           -0.2089    -2.1468     0.5898 C.3     
  30 C30           -0.6902    -0.9930    -0.2885 C.3     
  31 C31            1.5598    -3.7771     0.8657 C.3     
  32 H32           -0.9903     1.7447    -0.2697 H       
  33 H33            6.1578     1.8821     4.6062 H       
  34 H34            2.9086     4.0258     6.4071 H       
  35 H35            4.9132     1.7389     2.4963 H       
  36 H36            1.5345     6.0329     1.7324 H       
  37 H37            2.8836     5.3984     2.7050 H       
  38 H38            2.8173     4.2492     0.5408 H       
  39 H39            0.1661     4.1733     0.2315 H       
  40 H40           -1.3506     4.7073     4.3048 H       
  41 H41            1.4920     2.1918     6.2971 H       
  42 H42           -0.2640     1.4600     7.8565 H       
  43 H43           -2.5493     2.3466     7.6466 H       
  44 H44           -3.0921     3.9660     5.8759 H       
  45 H45            6.5106     3.2040     8.7595 H       
  46 H46            1.8151    -0.5848    -1.6087 H       
  47 H47            2.3739     0.5499    -0.3514 H       
  48 H48            3.1007    -1.8360     0.0562 H       
  49 H49            2.1143    -1.1605     1.3756 H       
  50 H50           -0.8975    -2.9868     0.4986 H       
  51 H51           -0.1709    -1.8183     1.6284 H       
  52 H52           -1.6325    -0.6060     0.0993 H       
  53 H53           -0.8285    -1.3442    -1.3111 H       
  54 H54            1.6561    -3.5624     1.9300 H       
  55 H55            0.8190    -4.5632     0.7192 H       
  56 H56            2.5217    -4.1067     0.4730 H       
@<TRIPOS>BOND
   1    1   25 1
   2    1   15 2
   3    1   32 1
   4    2    3 ar
   5    2    7 ar
   6    2   33 1
   7    3    4 ar
   8    3   23 1
   9    4    5 ar
  10    4   34 1
  11    5    6 ar
  12    5    8 1
  13    6    7 ar
  14    6   12 1
  15    7   35 1
  16    8    9 2
  17    8   17 1
  18    9   10 1
  19   10   11 1
  20   10   36 1
  21   10   37 1
  22   11   12 1
  23   11   14 1
  24   11   38 1
  25   12   13 am
  26   13   16 2
  27   13   15 1
  28   14   15 1
  29   14   39 1
  30   17   18 ar
  31   17   19 ar
  32   18   22 ar
  33   18   40 1
  34   19   20 ar
  35   19   41 1
  36   20   21 ar
  37   20   42 1
  38   21   22 ar
  39   21   43 1
  40   22   44 1
  41   23   24 3
  42   24   45 1
  43   25   26 1
  44   25   30 1
  45   26   27 1
  46   26   46 1
  47   26   47 1
  48   27   28 1
  49   27   48 1
  50   27   49 1
  51   28   29 1
  52   28   31 1
  53   29   30 1
  54   29   50 1
  55   29   51 1
  56   30   52 1
  57   30   53 1
  58   31   54 1
  59   31   55 1
  60   31   56 1

#	End of record

