#	Name: ASD01410463
#	Creating user name:	WinNT
#	Creation time:	15. 06. 2019 19:17

#	Modifying user name:	WinNT
#	Modification time:	15. 06. 2019 19:17

#	Program:	/corina/corina34_cracker 3.40 0067  02.08.2006

@<TRIPOS>MOLECULE
ASD01410463
  80   85    0    0    0
SMALL
NO_CHARGES


@<TRIPOS>ATOM
   1 C1            -0.8112     1.6727     0.1446 C.ar    
   2 C2            -1.1781     0.3432     0.2455 C.ar    
   3 C3            -0.2097    -0.6364     0.3450 C.ar    
   4 C4             1.1342    -0.2849     0.3436 C.ar    
   5 C5             1.4993     1.0516     0.2420 C.ar    
   6 C6             0.5257     2.0261     0.1429 C.ar    
   7 S7            -2.0499     2.9186     0.0106 S.o2    
   8 O8            -1.4301     4.0351    -0.6129 O.2     
   9 O9            -3.2067     2.2798    -0.5119 O.2     
  10 N10           -2.4338     3.3957     1.5492 N.am    
  11 N11            2.1163    -1.2730     0.4444 N.pl3   
  12 C12            3.5331    -0.9005     0.4428 C.3     
  13 C13            4.3790    -2.1420     0.5616 C.2     
  14 O14            3.8505    -3.2307     0.6400 O.2     
  15 N15            5.7230    -2.0424     0.5808 N.am    
  16 C16            6.5672    -3.2412     0.6962 C.3     
  17 C17            7.6152    -3.2079    -0.4214 C.3     
  18 N18            8.3395    -1.9309    -0.3712 N.3     
  19 C19            7.4394    -0.7975    -0.6223 C.3     
  20 C20            6.3844    -0.7325     0.4809 C.3     
  21 C21            9.4130    -1.9275    -1.2693 C.ar    
  22 C22           10.4918    -2.7873    -1.0720 C.ar    
  23 C23           11.5508    -2.7799    -1.9640 C.ar    
  24 C24           11.5368    -1.9204    -3.0477 C.ar    
  25 C25           10.4675    -1.0670    -3.2439 C.ar    
  26 C26            9.4032    -1.0725    -2.3612 C.ar    
  27 O27           10.5046    -3.6313    -0.0056 O.3     
  28 C28           11.6429    -4.4841     0.1332 C.3     
  29 S29           -1.7191     4.6012     3.9863 S.3     
  30 C30           -1.4958     4.0215     2.3261 C.2     
  31 N31           -0.2612     4.3055     1.9823 N.2     
  32 C32            0.5424     4.9125     2.8276 C.2     
  33 C33           -0.0624     5.2233     4.1352 C.2     
  34 O34            1.6970     5.1957     2.5516 O.2     
  35 C35            0.5105     5.8386     5.2000 C.2     
  36 C36           -1.5691     6.0758     8.8789 C.ar    
  37 C37           -1.7991     5.0026     8.0165 C.ar    
  38 C38           -1.1294     4.9237     6.8286 C.ar    
  39 C39           -0.2112     5.9211     6.4762 C.ar    
  40 C40            0.0178     6.9970     7.3434 C.ar    
  41 C41           -0.6546     7.0710     8.5301 C.ar    
  42 C42           -2.3014     6.1617    10.1648 C.ar    
  43 C43           -2.0746     7.2321    11.0292 C.ar    
  44 C44           -2.7593     7.3066    12.2249 C.ar    
  45 C45           -3.6692     6.3222    12.5667 C.ar    
  46 C46           -3.8980     5.2576    11.7133 C.ar    
  47 C47           -3.2239     5.1755    10.5121 C.ar    
  48 H48           -2.2231     0.0707     0.2469 H       
  49 H49           -0.4969    -1.6744     0.4241 H       
  50 H50            2.5433     1.3282     0.2406 H       
  51 H51            0.8089     3.0653     0.0637 H       
  52 H52           -3.3231     3.2319     1.9001 H       
  53 H53            1.8601    -2.2059     0.5156 H       
  54 H54            3.7723    -0.3855    -0.4877 H       
  55 H55            3.7362    -0.2403     1.2860 H       
  56 H56            7.0657    -3.2461     1.6655 H       
  57 H57            5.9509    -4.1343     0.5936 H       
  58 H58            8.3178    -4.0302    -0.2858 H       
  59 H59            7.1201    -3.3075    -1.3873 H       
  60 H60            8.0145     0.1284    -0.6324 H       
  61 H61            6.9468    -0.9307    -1.5854 H       
  62 H62            5.6472     0.0322     0.2361 H       
  63 H63            6.8649    -0.4916     1.4291 H       
  64 H64           12.3881    -3.4453    -1.8135 H       
  65 H65           12.3639    -1.9158    -3.7422 H       
  66 H66           10.4612    -0.3971    -4.0910 H       
  67 H67            8.5668    -0.4078    -2.5194 H       
  68 H68           12.5426    -3.8764     0.2298 H       
  69 H69           11.5261    -5.1042     1.0220 H       
  70 H70           11.7282    -5.1222    -0.7464 H       
  71 H71            1.4974     6.2678     5.1090 H       
  72 H72           -2.5072     4.2339     8.2888 H       
  73 H73           -1.3072     4.0928     6.1620 H       
  74 H74            0.7250     7.7674     7.0739 H       
  75 H75           -0.4787     7.9005     9.1990 H       
  76 H76           -1.3643     8.0010    10.7636 H       
  77 H77           -2.5843     8.1350    12.8954 H       
  78 H78           -4.2027     6.3848    13.5036 H       
  79 H79           -4.6090     4.4917    11.9858 H       
  80 H80           -3.4071     4.3467     9.8443 H       
@<TRIPOS>BOND
   1    1    2 ar
   2    1    6 ar
   3    1    7 1
   4    2    3 ar
   5    2   48 1
   6    3    4 ar
   7    3   49 1
   8    4    5 ar
   9    4   11 1
  10    5    6 ar
  11    5   50 1
  12    6   51 1
  13    7    8 2
  14    7    9 2
  15    7   10 am
  16   10   30 1
  17   10   52 1
  18   11   12 1
  19   11   53 1
  20   12   13 1
  21   12   54 1
  22   12   55 1
  23   13   14 2
  24   13   15 am
  25   15   16 1
  26   15   20 1
  27   16   17 1
  28   16   56 1
  29   16   57 1
  30   17   18 1
  31   17   58 1
  32   17   59 1
  33   18   19 1
  34   18   21 1
  35   19   20 1
  36   19   60 1
  37   19   61 1
  38   20   62 1
  39   20   63 1
  40   21   22 ar
  41   21   26 ar
  42   22   23 ar
  43   22   27 1
  44   23   24 ar
  45   23   64 1
  46   24   25 ar
  47   24   65 1
  48   25   26 ar
  49   25   66 1
  50   26   67 1
  51   27   28 1
  52   28   68 1
  53   28   69 1
  54   28   70 1
  55   29   30 1
  56   29   33 1
  57   30   31 2
  58   31   32 1
  59   32   33 1
  60   32   34 2
  61   33   35 2
  62   35   39 1
  63   35   71 1
  64   36   37 ar
  65   36   41 ar
  66   36   42 1
  67   37   38 ar
  68   37   72 1
  69   38   39 ar
  70   38   73 1
  71   39   40 ar
  72   40   41 ar
  73   40   74 1
  74   41   75 1
  75   42   43 ar
  76   42   47 ar
  77   43   44 ar
  78   43   76 1
  79   44   45 ar
  80   44   77 1
  81   45   46 ar
  82   45   78 1
  83   46   47 ar
  84   46   79 1
  85   47   80 1

#	End of record

