#	Name: ASD01840286
#	Creating user name:	WinNT
#	Creation time:	15. 06. 2019 19:37

#	Modifying user name:	WinNT
#	Modification time:	15. 06. 2019 19:37

#	Program:	/corina/corina34_cracker 3.40 0067  02.08.2006

@<TRIPOS>MOLECULE
ASD01840286
  35   37    0    0    0
SMALL
NO_CHARGES


@<TRIPOS>ATOM
   1 C1            -0.0935     1.5008     0.0101 C.3     
   2 C2            -0.0333    -0.0050     0.0019 C.ar    
   3 N3             0.0047    -0.6436    -1.1442 N.ar    
   4 C4             0.0585    -1.9749    -1.2140 C.ar    
   5 S5             0.1164    -3.0400    -2.6152 S.3     
   6 C6             0.1620    -4.4662    -1.5943 C.2     
   7 C7             0.2232    -5.8468    -2.0910 C.2     
   8 O8             0.2519    -6.7753    -1.3053 O.2     
   9 N9             0.2475    -6.0853    -3.4173 N.am    
  10 C10            0.3085    -7.4626    -3.9129 C.3     
  11 C11           -0.1977    -7.5357    -5.3740 C.3     
  12 C12            1.1272    -7.5133    -6.1782 C.3     
  13 O13            2.0281    -8.2951    -5.3647 O.3     
  14 C14            1.7708    -7.9418    -3.9953 C.3     
  15 C15            0.1341    -4.1237    -0.3013 C.2     
  16 Br16           0.1695    -5.4096     1.0848 Br      
  17 C17            0.0764    -2.7447    -0.0433 C.ar    
  18 C18            0.0359    -2.0700     1.2014 C.ar    
  19 C19            0.0530    -2.8432     2.4948 C.3     
  20 C20           -0.0133    -0.6947     1.2073 C.ar    
  21 Cl21          -0.0567     0.1718     2.7109 Cl      
  22 H22            0.9188     1.9048     0.0185 H       
  23 H23           -0.6160     1.8484    -0.8811 H       
  24 H24           -0.6267     1.8383     0.8988 H       
  25 H25            0.2246    -5.3451    -4.0437 H       
  26 H26           -0.2741    -8.1240    -3.2716 H       
  27 H27           -0.7442    -8.4621    -5.5505 H       
  28 H28           -0.8141    -6.6699    -5.6159 H       
  29 H29            0.9912    -7.9775    -7.1549 H       
  30 H30            1.4942    -6.4926    -6.2849 H       
  31 H31            2.4416    -7.1399    -3.6871 H       
  32 H32            1.9122    -8.8126    -3.3551 H       
  33 H33            1.0816    -3.0922     2.7556 H       
  34 H34           -0.3859    -2.2363     3.2867 H       
  35 H35           -0.5243    -3.7603     2.3775 H       
@<TRIPOS>BOND
   1    1    2 1
   2    1   22 1
   3    1   23 1
   4    1   24 1
   5    2   20 ar
   6    2    3 ar
   7    3    4 ar
   8    4   17 ar
   9    4    5 1
  10    5    6 1
  11    6    7 1
  12    6   15 2
  13    7    8 2
  14    7    9 am
  15    9   10 1
  16    9   25 1
  17   10   14 1
  18   10   11 1
  19   10   26 1
  20   11   12 1
  21   11   27 1
  22   11   28 1
  23   12   13 1
  24   12   29 1
  25   12   30 1
  26   13   14 1
  27   14   31 1
  28   14   32 1
  29   15   16 1
  30   15   17 1
  31   17   18 ar
  32   18   19 1
  33   18   20 ar
  34   19   33 1
  35   19   34 1
  36   19   35 1
  37   20   21 1

#	End of record

