#	Name: ASD03740099
#	Creating user name:	WinNT
#	Creation time:	15. 06. 2019 20:46

#	Modifying user name:	WinNT
#	Modification time:	15. 06. 2019 20:46

#	Program:	/corina/corina34_cracker 3.40 0067  02.08.2006

@<TRIPOS>MOLECULE
ASD03740099
  53   56    0    0    0
SMALL
NO_CHARGES


@<TRIPOS>ATOM
   1 C1             0.0356     1.3591     0.1737 C.ar    
   2 C2             0.0608    -0.0261     0.2757 C.ar    
   3 C3             1.2468    -0.7020     0.3334 C.ar    
   4 C4             2.4481     0.0011     0.2894 C.ar    
   5 C5             2.4241     1.4054     0.1855 C.ar    
   6 C6             1.1978     2.0743     0.1285 C.ar    
   7 N7             3.7667    -0.3707     0.3255 N.pl3   
   8 N8             4.5686     0.7725     0.2463 N.2     
   9 C9             3.8208     1.8390     0.1626 C.2     
  10 O10            4.2608     3.1218     0.0704 O.3     
  11 C11            4.2582    -1.7467     0.4311 C.3     
  12 C12            5.6755     3.3236     0.0649 C.3     
  13 C13            5.9769     4.8197    -0.0442 C.3     
  14 C14            7.4853     5.0461     0.0752 C.3     
  15 N15            7.9329     4.6636     1.4210 N.3     
  16 C16            4.4358    -2.3240    -0.9495 C.ar    
  17 C17            5.6452    -2.1876    -1.6052 C.ar    
  18 C18            5.8087    -2.7169    -2.8714 C.ar    
  19 C19            4.7617    -3.3834    -3.4828 C.ar    
  20 C20            3.5516    -3.5196    -2.8261 C.ar    
  21 C21            3.3911    -2.9948    -1.5576 C.ar    
  22 Cl22           4.9661    -4.0479    -5.0735 Cl      
  23 C23            9.3988     4.5116     1.4671 C.3     
  24 C24            9.9225     5.4610     2.5652 C.3     
  25 C25            8.6770     5.6756     3.4649 C.3     
  26 C26            7.5331     5.6771     2.4204 C.3     
  27 C27            5.4884     5.3411    -1.3971 C.3     
  28 H28           -0.9120     1.8747     0.1251 H       
  29 H29           -0.8684    -0.5754     0.3102 H       
  30 H30            1.2526    -1.7790     0.4134 H       
  31 H31            1.1699     3.1509     0.0485 H       
  32 H32            5.2152    -1.7516     0.9529 H       
  33 H33            3.5385    -2.3480     0.9866 H       
  34 H34            6.1018     2.9335     0.9891 H       
  35 H35            6.1136     2.8018    -0.7859 H       
  36 H36            5.4649     5.3527     0.7570 H       
  37 H37            8.0037     4.4384    -0.6665 H       
  38 H38            7.7094     6.0988    -0.0967 H       
  39 H39            6.4623    -1.6670    -1.1280 H       
  40 H40            6.7534    -2.6099    -3.3837 H       
  41 H41            2.7340    -4.0398    -3.3028 H       
  42 H42            2.4466    -3.1011    -1.0449 H       
  43 H43            9.6572     3.4817     1.7131 H       
  44 H44            9.8303     4.7847     0.5041 H       
  45 H45           10.7286     4.9910     3.1286 H       
  46 H46           10.2529     6.4054     2.1327 H       
  47 H47            8.5595     4.8540     4.1715 H       
  48 H48            8.7316     6.6317     3.9856 H       
  49 H49            7.4475     6.6580     1.9527 H       
  50 H50            6.5903     5.3960     2.8897 H       
  51 H51            4.4318     5.1022    -1.5185 H       
  52 H52            5.6239     6.4217    -1.4404 H       
  53 H53            6.0614     4.8707    -2.1961 H       
@<TRIPOS>BOND
   1    1    2 ar
   2    1    6 ar
   3    1   28 1
   4    2    3 ar
   5    2   29 1
   6    3    4 ar
   7    3   30 1
   8    4    5 ar
   9    4    7 1
  10    5    6 ar
  11    5    9 1
  12    6   31 1
  13    7    8 1
  14    7   11 1
  15    8    9 2
  16    9   10 1
  17   10   12 1
  18   11   16 1
  19   11   32 1
  20   11   33 1
  21   12   13 1
  22   12   34 1
  23   12   35 1
  24   13   27 1
  25   13   14 1
  26   13   36 1
  27   14   15 1
  28   14   37 1
  29   14   38 1
  30   15   23 1
  31   15   26 1
  32   16   17 ar
  33   16   21 ar
  34   17   18 ar
  35   17   39 1
  36   18   19 ar
  37   18   40 1
  38   19   20 ar
  39   19   22 1
  40   20   21 ar
  41   20   41 1
  42   21   42 1
  43   23   24 1
  44   23   43 1
  45   23   44 1
  46   24   25 1
  47   24   45 1
  48   24   46 1
  49   25   26 1
  50   25   47 1
  51   25   48 1
  52   26   49 1
  53   26   50 1
  54   27   51 1
  55   27   52 1
  56   27   53 1

#	End of record

