#	Name: ASD01812654
#	Creating user name:	WinNT
#	Creation time:	15. 06. 2019 19:29

#	Modifying user name:	WinNT
#	Modification time:	15. 06. 2019 19:29

#	Program:	/corina/corina34_cracker 3.40 0067  02.08.2006

@<TRIPOS>MOLECULE
ASD01812654
  55   59    0    0    0
SMALL
NO_CHARGES


@<TRIPOS>ATOM
   1 O1            -0.0163     1.3522     0.0095 O.3     
   2 C2             0.1656     0.0958     0.4873 C.ar    
   3 C3             1.4427    -0.3622     0.7753 C.ar    
   4 C4             1.6299    -1.6410     1.2618 C.ar    
   5 C5             0.5434    -2.4773     1.4669 C.ar    
   6 C6            -0.7281    -2.0373     1.1865 C.ar    
   7 C7            -0.9369    -0.7444     0.6980 C.ar    
   8 C8            -2.0901    -2.6767     1.2935 C.3     
   9 N9            -3.0527    -1.6691     0.8338 N.am    
  10 C10           -2.3827    -0.5532     0.4979 C.2     
  11 C11           -4.5052    -1.8465     0.7622 C.3     
  12 O12           -2.8968     0.4655     0.0779 O.2     
  13 C13            1.0870     2.0924    -0.2754 C.ar    
  14 C14           -5.1282    -1.4206     2.0666 C.ar    
  15 C15           -5.5289    -0.1085     2.2429 C.ar    
  16 C16           -6.1001     0.2869     3.4355 C.ar    
  17 C17           -6.2728    -0.6381     4.4627 C.ar    
  18 C18           -5.8675    -1.9583     4.2798 C.ar    
  19 C19           -5.3025    -2.3444     3.0811 C.ar    
  20 C20           -6.8862    -0.2183     5.7480 C.2     
  21 C21           -7.3400     1.0755     6.0703 C.2     
  22 N22           -7.8145     1.0477     7.2875 N.2     
  23 N23           -7.6835    -0.2539     7.7864 N.pl3   
  24 C24           -7.1182    -1.0171     6.8295 C.2     
  25 C25           -8.0945    -0.7092     9.1169 C.3     
  26 C26            1.6618     2.0246    -1.5357 C.ar    
  27 C27            2.7869     2.7812    -1.8233 C.ar    
  28 C28            3.3356     3.6046    -0.8499 C.ar    
  29 C29            2.7613     3.6704     0.4049 C.ar    
  30 C30            1.6364     2.9211     0.6927 C.ar    
  31 O31            3.3527     2.7166    -3.0573 O.3     
  32 C32            4.5102     3.5236    -3.2833 C.3     
  33 H33            2.2940     0.2836     0.6181 H       
  34 H34            2.6273    -1.9912     1.4833 H       
  35 H35            0.6964    -3.4765     1.8473 H       
  36 H36           -2.1402    -3.5605     0.6575 H       
  37 H37           -2.2967    -2.9474     2.3290 H       
  38 H38           -4.9061    -1.2375    -0.0480 H       
  39 H39           -4.7342    -2.8957     0.5756 H       
  40 H40           -5.3943     0.6079     1.4460 H       
  41 H41           -6.4123     1.3117     3.5723 H       
  42 H42           -5.9987    -2.6793     5.0731 H       
  43 H43           -4.9919    -3.3686     2.9367 H       
  44 H44           -7.3021     1.9400     5.4241 H       
  45 H45           -6.8887    -2.0697     6.9059 H       
  46 H46           -9.1268    -1.0571     9.0791 H       
  47 H47           -7.4474    -1.5257     9.4374 H       
  48 H48           -8.0150     0.1164     9.8241 H       
  49 H49            1.2336     1.3831    -2.2917 H       
  50 H50            4.2125     4.1940    -1.0735 H       
  51 H51            3.1898     4.3117     1.1609 H       
  52 H52            1.1868     2.9774     1.6730 H       
  53 H53            5.2961     3.2351    -2.5853 H       
  54 H54            4.8605     3.3782    -4.3052 H       
  55 H55            4.2569     4.5728    -3.1318 H       
@<TRIPOS>BOND
   1    1    2 1
   2    1   13 1
   3    2    3 ar
   4    2    7 ar
   5    3    4 ar
   6    3   33 1
   7    4    5 ar
   8    4   34 1
   9    5    6 ar
  10    5   35 1
  11    6    8 1
  12    6    7 ar
  13    7   10 1
  14    8    9 1
  15    8   36 1
  16    8   37 1
  17    9   10 am
  18    9   11 1
  19   10   12 2
  20   11   14 1
  21   11   38 1
  22   11   39 1
  23   13   26 ar
  24   13   30 ar
  25   14   15 ar
  26   14   19 ar
  27   15   16 ar
  28   15   40 1
  29   16   17 ar
  30   16   41 1
  31   17   18 ar
  32   17   20 1
  33   18   19 ar
  34   18   42 1
  35   19   43 1
  36   20   21 1
  37   20   24 2
  38   21   22 2
  39   21   44 1
  40   22   23 1
  41   23   24 1
  42   23   25 1
  43   24   45 1
  44   25   46 1
  45   25   47 1
  46   25   48 1
  47   26   27 ar
  48   26   49 1
  49   27   28 ar
  50   27   31 1
  51   28   29 ar
  52   28   50 1
  53   29   30 ar
  54   29   51 1
  55   30   52 1
  56   31   32 1
  57   32   53 1
  58   32   54 1
  59   32   55 1

#	End of record

