#	Name: ASD01882392
#	Creating user name:	WinNT
#	Creation time:	15. 06. 2019 19:44

#	Modifying user name:	WinNT
#	Modification time:	15. 06. 2019 19:44

#	Program:	/corina/corina34_cracker 3.40 0067  02.08.2006

@<TRIPOS>MOLECULE
ASD01882392
  57   60    0    0    0
SMALL
NO_CHARGES


@<TRIPOS>ATOM
   1 C1            -0.0311     1.3499    -0.1951 C.2     
   2 C2             0.0361    -0.0509    -0.1058 C.2     
   3 C3             1.2521    -0.6493     0.0838 C.2     
   4 C4             2.4129     0.1481     0.1859 C.2     
   5 C5             2.3253     1.4897     0.0974 C.2     
   6 N6             1.1177     2.0961    -0.0916 N.pl3   
   7 N7            -0.5677     3.4052    -0.3845 N.2     
   8 N8            -1.0272     2.2035    -0.3767 N.2     
   9 C9             0.7283     3.3974    -0.2163 C.2     
  10 C10           -1.2150    -0.8835    -0.2169 C.3     
  11 F11           -1.7209    -1.1380     1.0624 F       
  12 F12           -2.1712    -0.1906    -0.9671 F       
  13 F13           -0.9145    -2.0948    -0.8490 F       
  14 N14            1.3440    -2.0348     0.1759 N.pl3   
  15 C15            0.7390    -2.7517     1.3068 C.3     
  16 C16            1.8076    -3.6339     1.9599 C.3     
  17 C17            2.4299    -4.5445     0.8989 C.3     
  18 C18            3.1014    -3.6902    -0.1788 C.3     
  19 C19            2.0425    -2.8092    -0.8591 C.3     
  20 C20            3.4579    -5.4377     1.5442 C.ar    
  21 C21            3.3112    -6.8112     1.4908 C.ar    
  22 C22            4.2541    -7.6306     2.0828 C.ar    
  23 C23            5.3439    -7.0764     2.7278 C.ar    
  24 C24            5.4911    -5.7030     2.7805 C.ar    
  25 C25            4.5504    -4.8837     2.1847 C.ar    
  26 C26            1.6284     4.6052    -0.1706 C.3     
  27 C27            2.1158     4.9318    -1.5836 C.3     
  28 C28            0.9132     5.2256    -2.4827 C.3     
  29 C29            3.0296     6.1581    -1.5373 C.3     
  30 C30            2.8919     3.7383    -2.1440 C.3     
  31 H31            3.3749    -0.3192     0.3359 H       
  32 H32            3.2191     2.0906     0.1771 H       
  33 H33            0.3627    -2.0336     2.0354 H       
  34 H34           -0.0802    -3.3749     0.9482 H       
  35 H35            2.5818    -3.0037     2.3978 H       
  36 H36            1.3499    -4.2432     2.7391 H       
  37 H37            1.6513    -5.1568     0.4440 H       
  38 H38            3.8633    -3.0595     0.2792 H       
  39 H39            3.5644    -4.3396    -0.9218 H       
  40 H40            1.3275    -3.4370    -1.3907 H       
  41 H41            2.5266    -2.1290    -1.5600 H       
  42 H42            2.4597    -7.2442     0.9869 H       
  43 H43            4.1391    -8.7037     2.0417 H       
  44 H44            6.0802    -7.7166     3.1910 H       
  45 H45            6.3424    -5.2700     3.2847 H       
  46 H46            4.6673    -3.8107     2.2226 H       
  47 H47            1.0754     5.4555     0.2286 H       
  48 H48            2.4851     4.3959     0.4699 H       
  49 H49            0.3602     6.0759    -2.0835 H       
  50 H50            1.2604     5.4583    -3.4894 H       
  51 H51            0.2622     4.3520    -2.5158 H       
  52 H52            3.8863     5.9488    -0.8967 H       
  53 H53            3.3768     6.3908    -2.5440 H       
  54 H54            2.4766     7.0084    -1.1381 H       
  55 H55            2.2409     2.8647    -2.1770 H       
  56 H56            3.2392     3.9710    -3.1507 H       
  57 H57            3.7487     3.5290    -1.5035 H       
@<TRIPOS>BOND
   1    1    2 1
   2    1    6 1
   3    1    8 2
   4    2    3 2
   5    2   10 1
   6    3    4 1
   7    3   14 1
   8    4    5 2
   9    4   31 1
  10    5    6 1
  11    5   32 1
  12    6    9 1
  13    7    8 1
  14    7    9 2
  15    9   26 1
  16   10   11 1
  17   10   12 1
  18   10   13 1
  19   14   15 1
  20   14   19 1
  21   15   16 1
  22   15   33 1
  23   15   34 1
  24   16   17 1
  25   16   35 1
  26   16   36 1
  27   17   18 1
  28   17   20 1
  29   17   37 1
  30   18   19 1
  31   18   38 1
  32   18   39 1
  33   19   40 1
  34   19   41 1
  35   20   21 ar
  36   20   25 ar
  37   21   22 ar
  38   21   42 1
  39   22   23 ar
  40   22   43 1
  41   23   24 ar
  42   23   44 1
  43   24   25 ar
  44   24   45 1
  45   25   46 1
  46   26   27 1
  47   26   47 1
  48   26   48 1
  49   27   28 1
  50   27   29 1
  51   27   30 1
  52   28   49 1
  53   28   50 1
  54   28   51 1
  55   29   52 1
  56   29   53 1
  57   29   54 1
  58   30   55 1
  59   30   56 1
  60   30   57 1

#	End of record

