#	Name: ASD00311514
#	Creating user name:	WinNT
#	Creation time:	15. 06. 2019 18:34

#	Modifying user name:	WinNT
#	Modification time:	15. 06. 2019 18:34

#	Program:	/corina/corina34_cracker 3.40 0067  02.08.2006

@<TRIPOS>MOLECULE
ASD00311514
  50   54    0    0    0
SMALL
NO_CHARGES


@<TRIPOS>ATOM
   1 C1            -0.0167     1.3778     0.0096 C.2     
   2 C2             0.0021    -0.0041     0.0020 C.2     
   3 C3             1.2589    -0.6766    -0.0140 C.2     
   4 C4             2.4316     0.0673    -0.0217 C.2     
   5 C5             2.3574     1.4753    -0.0134 C.2     
   6 N6             1.1648     2.0904     0.0022 N.am    
   7 C7            -1.3431    -0.5750     0.0123 C.2     
   8 C8            -2.3223     0.3256     0.0268 C.2     
   9 S9            -1.6794     1.9559     0.0358 S.3     
  10 O10            3.3822     2.1374    -0.0200 O.2     
  11 C11            3.7477    -0.6119    -0.0379 C.ar    
  12 C12            4.5931    -0.4744    -1.1387 C.ar    
  13 C13            5.8179    -1.1096    -1.1479 C.ar    
  14 C14            6.2081    -1.8816    -0.0682 C.ar    
  15 C15            5.3740    -2.0218     1.0266 C.ar    
  16 C16            4.1491    -1.3868     1.0501 C.ar    
  17 C17           -2.7004    -3.9684     0.9231 C.ar    
  18 C18           -2.4680    -2.5963     0.9350 C.ar    
  19 C19           -1.5955    -2.0356     0.0065 C.ar    
  20 C20           -0.9595    -2.8512    -0.9299 C.ar    
  21 C21           -1.1945    -4.2116    -0.9368 C.ar    
  22 C22           -2.0593    -4.7733    -0.0177 C.ar    
  23 C23           -3.6241    -4.5742     1.9132 C.ar    
  24 C24           -4.6392    -5.4377     1.4900 C.ar    
  25 C25           -5.4971    -5.9994     2.4217 C.ar    
  26 C26           -5.3490    -5.7065     3.7644 C.ar    
  27 C27           -4.3456    -4.8525     4.1860 C.ar    
  28 C28           -3.4805    -4.2900     3.2689 C.ar    
  29 O29           -4.7840    -5.7245     0.1701 O.3     
  30 C30           -5.8431    -6.6145    -0.1880 C.3     
  31 O31            1.3089    -2.0291    -0.0214 O.3     
  32 H32            1.1326     3.0598     0.0077 H       
  33 H33           -3.3749     0.0838     0.0354 H       
  34 H34            4.2894     0.1277    -1.9823 H       
  35 H35            6.4733    -1.0043    -1.9999 H       
  36 H36            7.1676    -2.3772    -0.0802 H       
  37 H37            5.6841    -2.6258     1.8665 H       
  38 H38            3.5007    -1.4933     1.9072 H       
  39 H39           -2.9627    -1.9690     1.6618 H       
  40 H40           -0.2823    -2.4176    -1.6508 H       
  41 H41           -0.7006    -4.8391    -1.6638 H       
  42 H42           -2.2388    -5.8382    -0.0275 H       
  43 H43           -6.2825    -6.6665     2.0985 H       
  44 H44           -6.0199    -6.1460     4.4876 H       
  45 H45           -4.2361    -4.6284     5.2368 H       
  46 H46           -2.6955    -3.6273     3.6021 H       
  47 H47           -5.6933    -7.5747     0.3056 H       
  48 H48           -6.7965    -6.1896     0.1257 H       
  49 H49           -5.8472    -6.7581    -1.2685 H       
  50 H50            2.2062    -2.3895    -0.0322 H       
@<TRIPOS>BOND
   1    1    2 2
   2    1    6 1
   3    1    9 1
   4    2    3 1
   5    2    7 1
   6    3    4 2
   7    3   31 1
   8    4    5 1
   9    4   11 1
  10    5    6 am
  11    5   10 2
  12    6   32 1
  13    7    8 2
  14    7   19 1
  15    8    9 1
  16    8   33 1
  17   11   12 ar
  18   11   16 ar
  19   12   13 ar
  20   12   34 1
  21   13   14 ar
  22   13   35 1
  23   14   15 ar
  24   14   36 1
  25   15   16 ar
  26   15   37 1
  27   16   38 1
  28   17   18 ar
  29   17   22 ar
  30   17   23 1
  31   18   19 ar
  32   18   39 1
  33   19   20 ar
  34   20   21 ar
  35   20   40 1
  36   21   22 ar
  37   21   41 1
  38   22   42 1
  39   23   24 ar
  40   23   28 ar
  41   24   25 ar
  42   24   29 1
  43   25   26 ar
  44   25   43 1
  45   26   27 ar
  46   26   44 1
  47   27   28 ar
  48   27   45 1
  49   28   46 1
  50   29   30 1
  51   30   47 1
  52   30   48 1
  53   30   49 1
  54   31   50 1

#	End of record

