#	Name: ASD01478002
#	Creating user name:	WinNT
#	Creation time:	15. 06. 2019 19:21

#	Modifying user name:	WinNT
#	Modification time:	15. 06. 2019 19:21

#	Program:	/corina/corina34_cracker 3.40 0067  02.08.2006

@<TRIPOS>MOLECULE
ASD01478002
  76   78    0    0    0
SMALL
NO_CHARGES


@<TRIPOS>ATOM
   1 C1            -0.1647     1.8826     1.9192 C.3     
   2 C2            -0.0652    -0.3823     2.6652 C.2     
   3 O3            -0.2851     0.4627     1.6403 O.3     
   4 N4            -0.1609    -1.7130     2.4739 N.am    
   5 O5             0.2194     0.0548     3.7627 O.2     
   6 C6            -1.2112    -2.8035     4.3946 C.3     
   7 C7             0.0783    -2.6324     3.5891 C.3     
   8 C8             0.5230    -3.9909     3.0437 C.3     
   9 C9             0.8924    -4.9119     4.2082 C.3     
  10 N10            1.4415    -6.1651     3.6845 N.am    
  11 S11            0.6284    -7.5882     3.9213 S.o2    
  12 C12           -0.4623    -7.7995     2.5537 C.ar    
  13 C13           -0.0314    -8.4712     1.4246 C.ar    
  14 C14           -0.8847    -8.6382     0.3511 C.ar    
  15 C15           -2.1748    -8.1312     0.4065 C.ar    
  16 C16           -2.6048    -7.4576     1.5406 C.ar    
  17 C17           -1.7495    -7.2982     2.6137 C.ar    
  18 O18            1.5965    -8.6241     3.8261 O.2     
  19 O19           -0.1937    -7.3953     5.0642 O.2     
  20 C20            2.7098    -6.1593     2.9514 C.3     
  21 C21            3.8484    -5.7915     3.9050 C.3     
  22 C22            3.9693    -6.8616     4.9917 C.3     
  23 C23            5.1611    -5.7076     3.1235 C.3     
  24 O24           -0.5438    -4.5755     2.2939 O.3     
  25 C25            1.2206     2.3028     1.6821 C.3     
  26 O26            1.4024     3.7110     1.9333 O.3     
  27 C27            0.9791     4.5118     0.8672 C.3     
  28 O28           -0.3713     4.9975     1.0306 O.3     
  29 C29           -1.3165     4.0459     1.5734 C.3     
  30 C30           -1.1485     2.6592     1.0193 C.3     
  31 C31           -1.5825    -1.4901     5.0333 C.ar    
  32 C32           -2.3956    -0.5987     4.3586 C.ar    
  33 C33           -2.7362     0.6061     4.9445 C.ar    
  34 C34           -2.2640     0.9194     6.2054 C.ar    
  35 C35           -1.4517     0.0277     6.8805 C.ar    
  36 C36           -1.1146    -1.1790     6.2964 C.ar    
  37 O37           -3.0160    -8.2937    -0.6485 O.3     
  38 C38           -4.3295    -7.7456    -0.5213 C.3     
  39 H39           -0.4188     2.0637     2.9635 H       
  40 H40           -0.3881    -2.0619     1.5978 H       
  41 H41           -2.0141    -3.1247     3.7311 H       
  42 H42           -1.0584    -3.5542     5.1699 H       
  43 H43            0.8581    -2.2267     4.2336 H       
  44 H44            1.3904    -3.8567     2.3974 H       
  45 H45            1.6375    -4.4230     4.8359 H       
  46 H46            0.0020    -5.1246     4.7999 H       
  47 H47            0.9732    -8.8654     1.3818 H       
  48 H48           -0.5475    -9.1626    -0.5308 H       
  49 H49           -3.6087    -7.0620     1.5862 H       
  50 H50           -2.0837    -6.7739     3.4967 H       
  51 H51            2.8920    -7.1491     2.5328 H       
  52 H52            2.6602    -5.4274     2.1453 H       
  53 H53            3.6382    -4.8268     4.3668 H       
  54 H54            4.7805    -6.5995     5.6711 H       
  55 H55            3.0341    -6.9213     5.5485 H       
  56 H56            4.1795    -7.8263     4.5299 H       
  57 H57            5.0749    -4.9452     2.3492 H       
  58 H58            5.9722    -5.4455     3.8028 H       
  59 H59            5.3713    -6.6723     2.6617 H       
  60 H60           -1.3499    -4.7241     2.8070 H       
  61 H61            1.8809     1.7366     2.3389 H       
  62 H62            1.4841     2.0898     0.6461 H       
  63 H63            1.6513     5.3655     0.7807 H       
  64 H64            1.0340     3.9297    -0.0527 H       
  65 H65           -1.1920     4.0077     2.6556 H       
  66 H66           -2.3264     4.3911     1.3521 H       
  67 H67           -0.7504     2.7160     0.0062 H       
  68 H68           -2.1126     2.1508     1.0077 H       
  69 H69           -2.7645    -0.8435     3.3735 H       
  70 H70           -3.3709     1.3027     4.4170 H       
  71 H71           -2.5295     1.8610     6.6628 H       
  72 H72           -1.0825     0.2726     7.8654 H       
  73 H73           -0.4830    -1.8773     6.8254 H       
  74 H74           -4.8960    -7.9451    -1.4309 H       
  75 H75           -4.8340    -8.2046     0.3289 H       
  76 H76           -4.2604    -6.6691    -0.3650 H       
@<TRIPOS>BOND
   1    1    3 1
   2    1   25 1
   3    1   30 1
   4    1   39 1
   5    2    3 1
   6    2    4 am
   7    2    5 2
   8    4    7 1
   9    4   40 1
  10    6    7 1
  11    6   31 1
  12    6   41 1
  13    6   42 1
  14    7    8 1
  15    7   43 1
  16    8    9 1
  17    8   24 1
  18    8   44 1
  19    9   10 1
  20    9   45 1
  21    9   46 1
  22   10   11 am
  23   10   20 1
  24   11   12 1
  25   11   18 2
  26   11   19 2
  27   12   13 ar
  28   12   17 ar
  29   13   14 ar
  30   13   47 1
  31   14   15 ar
  32   14   48 1
  33   15   16 ar
  34   15   37 1
  35   16   17 ar
  36   16   49 1
  37   17   50 1
  38   20   21 1
  39   20   51 1
  40   20   52 1
  41   21   22 1
  42   21   23 1
  43   21   53 1
  44   22   54 1
  45   22   55 1
  46   22   56 1
  47   23   57 1
  48   23   58 1
  49   23   59 1
  50   24   60 1
  51   25   26 1
  52   25   61 1
  53   25   62 1
  54   26   27 1
  55   27   28 1
  56   27   63 1
  57   27   64 1
  58   28   29 1
  59   29   30 1
  60   29   65 1
  61   29   66 1
  62   30   67 1
  63   30   68 1
  64   31   32 ar
  65   31   36 ar
  66   32   33 ar
  67   32   69 1
  68   33   34 ar
  69   33   70 1
  70   34   35 ar
  71   34   71 1
  72   35   36 ar
  73   35   72 1
  74   36   73 1
  75   37   38 1
  76   38   74 1
  77   38   75 1
  78   38   76 1

#	End of record

