#	Name: ASD03730138
#	Creating user name:	WinNT
#	Creation time:	15. 06. 2019 20:44

#	Modifying user name:	WinNT
#	Modification time:	15. 06. 2019 20:44

#	Program:	/corina/corina34_cracker 3.40 0067  02.08.2006

@<TRIPOS>MOLECULE
ASD03730138
  55   59    0    0    0
SMALL
NO_CHARGES


@<TRIPOS>ATOM
   1 C1            -0.0187     1.5258     0.0104 C.3     
   2 C2             0.0021    -0.0041     0.0020 C.3     
   3 O3            -6.3179     2.7319    -2.0627 O.3     
   4 C4            -7.7364     2.6398    -2.2919 C.3     
   5 O5            -7.9129     1.3103    -2.8155 O.3     
   6 C6            -6.8816     0.5757    -2.3039 C.ar    
   7 C7            -5.9007     1.4505    -1.8421 C.ar    
   8 C8            -6.6979    -0.7908    -2.1922 C.ar    
   9 C9            -5.5360    -1.3017    -1.6216 C.ar    
  10 C10           -4.5597    -0.4181    -1.1715 C.ar    
  11 C11           -4.7425     0.9450    -1.2759 C.ar    
  12 O12           -5.1685    -2.5969    -1.4033 O.3     
  13 C13           -3.4303    -1.2604    -0.6416 C.3     
  14 C14           -3.7446    -2.6578    -1.1930 C.3     
  15 N15           -1.3723    -0.5112     0.0124 N.am    
  16 C16           -2.0888    -0.7661    -1.1006 C.2     
  17 C17           -3.3660    -1.2517     0.8570 C.ar    
  18 C18           -4.2588    -1.5892     1.8495 C.ar    
  19 C19           -3.8947    -1.4701     3.1789 C.ar    
  20 C20           -2.6324    -1.0107     3.5083 C.ar    
  21 C21           -1.7350    -0.6705     2.5178 C.ar    
  22 C22           -2.0927    -0.7876     1.1769 C.ar    
  23 O23           -1.7217    -0.6243    -2.2478 O.2     
  24 P24            1.6916     2.1568    -0.0025 P.3     
  25 O25            1.6705     3.7619    -0.1260 O.3     
  26 O26            2.4302     1.7333     1.3640 O.3     
  27 O27            2.4205     1.5828    -1.1556 O.2     
  28 C28            2.8560     4.5473    -0.2664 C.3     
  29 C29            2.4794     6.0275    -0.3564 C.3     
  30 C30            3.8140     1.9894     1.6123 C.3     
  31 C31            4.1898     1.4605     2.9980 C.3     
  32 H32           -0.5459     1.8868    -0.8726 H       
  33 H33           -0.5289     1.8773     0.9072 H       
  34 H34            0.5123    -0.3556    -0.8948 H       
  35 H35            0.5293    -0.3651     0.8851 H       
  36 H36           -8.2839     2.7590    -1.3569 H       
  37 H37           -8.0556     3.3842    -3.0214 H       
  38 H38           -7.4613    -1.4657    -2.5501 H       
  39 H39           -3.9803     1.6199    -0.9154 H       
  40 H40           -3.4936    -3.4275    -0.4632 H       
  41 H41           -3.2213    -2.8294    -2.1337 H       
  42 H42           -5.2440    -1.9476     1.5900 H       
  43 H43           -4.5944    -1.7356     3.9577 H       
  44 H44           -2.3483    -0.9176     4.5461 H       
  45 H45           -0.7513    -0.3120     2.7829 H       
  46 H46            3.5015     4.3885     0.5974 H       
  47 H47            3.3830     4.2507    -1.1733 H       
  48 H48            1.8339     6.1863    -1.2202 H       
  49 H49            1.9524     6.3241     0.5504 H       
  50 H50            3.3837     6.6266    -0.4635 H       
  51 H51            4.4177     1.4879     0.8560 H       
  52 H52            3.9979     3.0629     1.5710 H       
  53 H53            5.2453     1.6558     3.1874 H       
  54 H54            3.5860     1.9620     3.7543 H       
  55 H55            4.0058     0.3869     3.0393 H       
@<TRIPOS>BOND
   1    1    2 1
   2    1   24 1
   3    1   32 1
   4    1   33 1
   5    2   15 1
   6    2   34 1
   7    2   35 1
   8    3    4 1
   9    3    7 1
  10    4    5 1
  11    4   36 1
  12    4   37 1
  13    5    6 1
  14    6    7 ar
  15    6    8 ar
  16    7   11 ar
  17    8    9 ar
  18    8   38 1
  19    9   10 ar
  20    9   12 1
  21   10   11 ar
  22   10   13 1
  23   11   39 1
  24   12   14 1
  25   13   14 1
  26   13   16 1
  27   13   17 1
  28   14   40 1
  29   14   41 1
  30   15   16 am
  31   15   22 1
  32   16   23 2
  33   17   18 ar
  34   17   22 ar
  35   18   19 ar
  36   18   42 1
  37   19   20 ar
  38   19   43 1
  39   20   21 ar
  40   20   44 1
  41   21   22 ar
  42   21   45 1
  43   24   25 1
  44   24   26 1
  45   24   27 2
  46   25   28 1
  47   26   30 1
  48   28   29 1
  49   28   46 1
  50   28   47 1
  51   29   48 1
  52   29   49 1
  53   29   50 1
  54   30   31 1
  55   30   51 1
  56   30   52 1
  57   31   53 1
  58   31   54 1
  59   31   55 1

#	End of record

