#	Name: ASD01510103
#	Creating user name:	WinNT
#	Creation time:	15. 06. 2019 19:21

#	Modifying user name:	WinNT
#	Modification time:	15. 06. 2019 19:21

#	Program:	/corina/corina34_cracker 3.40 0067  02.08.2006

@<TRIPOS>MOLECULE
ASD01510103
  52   55    0    0    0
SMALL
NO_CHARGES


@<TRIPOS>ATOM
   1 C1            -0.0094     1.4163    -0.2306 C.3     
   2 O2             0.0067    -0.0108    -0.1582 O.3     
   3 C3            -1.1945    -0.6370    -0.0701 C.ar    
   4 N4            -2.3064     0.0786    -0.0549 N.ar    
   5 C5            -3.4991    -0.4924     0.0296 C.ar    
   6 C6            -3.6226    -1.8736     0.1057 C.ar    
   7 C7            -2.4805    -2.6578     0.0926 C.ar    
   8 C8            -1.2441    -2.0280    -0.0023 C.ar    
   9 S9             0.2410    -2.9761    -0.0238 S.3     
  10 C10            0.6421    -2.8775    -1.7367 C.ar    
  11 N11           -0.2060    -2.2862    -2.5662 N.ar    
  12 C12            0.0613    -2.1926    -3.8599 C.ar    
  13 C13            1.2425    -2.7207    -4.3461 C.ar    
  14 C14            2.1157    -3.3373    -3.4487 C.ar    
  15 N15            1.7869    -3.3916    -2.1631 N.ar    
  16 N16            3.3150    -3.8823    -3.8934 N.am    
  17 C17            4.1983    -4.3816    -3.0063 C.2     
  18 O18            3.9094    -4.4395    -1.8300 O.2     
  19 C19            5.5450    -4.8681    -3.4762 C.3     
  20 C20            6.5031    -5.4238    -2.4207 C.3     
  21 C21            5.8168    -6.3721    -3.4059 C.3     
  22 N22           -4.6428     0.3022     0.0428 N.3     
  23 C23           -4.2950     1.7273    -0.0455 C.3     
  24 C24           -5.5777     2.5598    -0.1083 C.3     
  25 N25           -6.3912     2.2923     1.0859 N.3     
  26 C26           -6.7391     0.8672     1.1742 C.3     
  27 C27           -5.4563     0.0347     1.2370 C.3     
  28 C28           -7.5976     3.1304     1.0998 C.3     
  29 H29            1.0130     1.7883    -0.2974 H       
  30 H30           -0.5682     1.7291    -1.1127 H       
  31 H31           -0.4853     1.8201     0.6630 H       
  32 H32           -4.5984    -2.3314     0.1747 H       
  33 H33           -2.5490    -3.7341     0.1505 H       
  34 H34           -0.6362    -1.7093    -4.5279 H       
  35 H35            1.4842    -2.6579    -5.3969 H       
  36 H36            3.5160    -3.9031    -4.8421 H       
  37 H37            5.9796    -4.3163    -4.3097 H       
  38 H38            7.5681    -5.2379    -2.5600 H       
  39 H39            6.1594    -5.4376    -1.3864 H       
  40 H40            5.0215    -7.0098    -3.0197 H       
  41 H41            6.4302    -6.8101    -4.1933 H       
  42 H42           -3.7169     2.0156     0.8324 H       
  43 H43           -3.7035     1.9023    -0.9442 H       
  44 H44           -5.3225     3.6189    -0.1447 H       
  45 H45           -6.1425     2.2908    -1.0009 H       
  46 H46           -7.3305     0.6922     2.0729 H       
  47 H47           -7.3171     0.5789     0.2962 H       
  48 H48           -5.7116    -1.0244     1.2733 H       
  49 H49           -4.8915     0.3038     2.1296 H       
  50 H50           -8.1969     2.9193     0.2141 H       
  51 H51           -8.1813     2.9122     1.9940 H       
  52 H52           -7.3095     4.1817     1.1014 H       
@<TRIPOS>BOND
   1    1    2 1
   2    1   29 1
   3    1   30 1
   4    1   31 1
   5    2    3 1
   6    3    4 ar
   7    3    8 ar
   8    4    5 ar
   9    5    6 ar
  10    5   22 1
  11    6    7 ar
  12    6   32 1
  13    7    8 ar
  14    7   33 1
  15    8    9 1
  16    9   10 1
  17   10   11 ar
  18   10   15 ar
  19   11   12 ar
  20   12   13 ar
  21   12   34 1
  22   13   14 ar
  23   13   35 1
  24   14   15 ar
  25   14   16 1
  26   16   17 am
  27   16   36 1
  28   17   18 2
  29   17   19 1
  30   19   20 1
  31   19   21 1
  32   19   37 1
  33   20   21 1
  34   20   38 1
  35   20   39 1
  36   21   40 1
  37   21   41 1
  38   22   23 1
  39   22   27 1
  40   23   24 1
  41   23   42 1
  42   23   43 1
  43   24   25 1
  44   24   44 1
  45   24   45 1
  46   25   26 1
  47   25   28 1
  48   26   27 1
  49   26   46 1
  50   26   47 1
  51   27   48 1
  52   27   49 1
  53   28   50 1
  54   28   51 1
  55   28   52 1

#	End of record

