#	Name: ASD03910010
#	Creating user name:	WinNT
#	Creation time:	15. 06. 2019 20:47

#	Modifying user name:	WinNT
#	Modification time:	15. 06. 2019 20:47

#	Program:	/corina/corina34_cracker 3.40 0067  02.08.2006

@<TRIPOS>MOLECULE
ASD03910010
  48   49    0    0    0
SMALL
NO_CHARGES


@<TRIPOS>ATOM
   1 C1            -0.2078    -0.2751    -0.3189 C.ar    
   2 C2             0.8076     0.2969     0.4253 C.ar    
   3 C3             0.5663     1.4387     1.1671 C.ar    
   4 C4            -0.6905     2.0112     1.1672 C.ar    
   5 C5            -1.7125     1.4392     0.4208 C.ar    
   6 C6            -1.4653     0.2960    -0.3279 C.ar    
   7 N7            -2.9870     2.0167     0.4188 N.am    
   8 C8             1.6759     2.0588     1.9767 C.3     
   9 C9            -3.1195     3.3572     0.4653 C.2     
  10 C10           -4.4867     3.9831     0.3655 C.3     
  11 O11           -2.1383     4.0597     0.5874 O.2     
  12 C12           -4.3595     5.4827     0.4432 C.ar    
  13 C13           -4.1904     6.2218    -0.7131 C.ar    
  14 C14           -4.0735     7.5966    -0.6445 C.ar    
  15 C15           -4.1260     8.2356     0.5857 C.ar    
  16 C16           -4.2959     7.4917     1.7444 C.ar    
  17 C17           -4.4178     6.1177     1.6700 C.ar    
  18 O18           -4.0109     9.5879     0.6558 O.3     
  19 C19           -4.1832    10.1879     1.9413 C.3     
  20 C20           -3.1367     9.6579     2.8873 C.2     
  21 O21           -2.3265     8.8493     2.5005 O.2     
  22 O22           -3.1047    10.0841     4.1597 O.3     
  23 C23            0.0595    -1.5195    -1.1258 C.3     
  24 C24           -4.0382    11.7061     1.8190 C.3     
  25 C25           -5.5750     9.8502     2.4793 C.3     
  26 Na26          -1.6858     9.3259     5.3311 Du      
  27 H27            1.7911    -0.1493     0.4275 H       
  28 H28           -0.8785     2.9026     1.7473 H       
  29 H29           -2.2579    -0.1510    -0.9096 H       
  30 H30           -3.7751     1.4524     0.3838 H       
  31 H31            2.2078     2.7880     1.3656 H       
  32 H32            1.2542     2.5556     2.8505 H       
  33 H33            2.3682     1.2813     2.2996 H       
  34 H34           -4.9448     3.7060    -0.5840 H       
  35 H35           -5.1095     3.6283     1.1866 H       
  36 H36           -4.1492     5.7239    -1.6705 H       
  37 H37           -3.9410     8.1734    -1.5479 H       
  38 H38           -4.3371     7.9868     2.7033 H       
  39 H39           -4.5501     5.5381     2.5717 H       
  40 H40           -0.1404    -2.3992    -0.5140 H       
  41 H41           -0.5893    -1.5309    -2.0016 H       
  42 H42            1.1016    -1.5284    -1.4454 H       
  43 H43           -4.8468    12.0999     1.2032 H       
  44 H44           -4.0841    12.1565     2.8105 H       
  45 H45           -3.0803    11.9435     1.3561 H       
  46 H46           -5.7278     8.7717     2.4405 H       
  47 H47           -5.6586    10.1920     3.5110 H       
  48 H48           -6.3304    10.3463     1.8699 H       
@<TRIPOS>BOND
   1    1    2 ar
   2    1   23 1
   3    1    6 ar
   4    2    3 ar
   5    2   27 1
   6    3    4 ar
   7    3    8 1
   8    4    5 ar
   9    4   28 1
  10    5    6 ar
  11    5    7 1
  12    6   29 1
  13    7    9 am
  14    7   30 1
  15    8   31 1
  16    8   32 1
  17    8   33 1
  18    9   10 1
  19    9   11 2
  20   10   12 1
  21   10   34 1
  22   10   35 1
  23   12   13 ar
  24   12   17 ar
  25   13   14 ar
  26   13   36 1
  27   14   15 ar
  28   14   37 1
  29   15   16 ar
  30   15   18 1
  31   16   17 ar
  32   16   38 1
  33   17   39 1
  34   18   19 1
  35   19   20 1
  36   19   24 1
  37   19   25 1
  38   20   21 2
  39   20   22 1
  40   22   26 1
  41   23   40 1
  42   23   41 1
  43   23   42 1
  44   24   43 1
  45   24   44 1
  46   24   45 1
  47   25   46 1
  48   25   47 1
  49   25   48 1

#	End of record

