#	Name: ASD03731450
#	Creating user name:	WinNT
#	Creation time:	15. 06. 2019 20:45

#	Modifying user name:	WinNT
#	Modification time:	15. 06. 2019 20:45

#	Program:	/corina/corina34_cracker 3.40 0067  02.08.2006

@<TRIPOS>MOLECULE
ASD03731450
  60   66    0    0    0
SMALL
NO_CHARGES


@<TRIPOS>ATOM
   1 N1            -0.0158     1.3145     0.0093 N.ar    
   2 C2             0.0021    -0.0041     0.0020 C.ar    
   3 C3             1.2077    -0.7212    -0.0133 C.ar    
   4 C4             2.3965    -0.0504    -0.0211 C.ar    
   5 C5             2.3673     1.3569    -0.0132 C.ar    
   6 C6             3.5515     2.1107    -0.0209 C.ar    
   7 C7             3.4844     3.4707    -0.0134 C.ar    
   8 C8             2.2547     4.1270     0.0018 C.ar    
   9 C9             1.0867     3.4299     0.0096 C.ar    
  10 C10            1.1134     2.0223     0.0023 C.ar    
  11 C11           -1.2818    -0.7459     0.0108 C.2     
  12 O12           -1.2815    -1.9608     0.0043 O.2     
  13 N13           -2.4491    -0.0724     0.0260 N.am    
  14 C14           -3.7176    -0.8052     0.0346 C.3     
  15 C15           -4.8807     0.1886     0.0515 C.3     
  16 C16           -6.2054    -0.5768     0.0606 C.3     
  17 O17           -6.9261     6.2627    -2.0353 O.3     
  18 C18           -7.7016     7.4541    -2.2635 C.3     
  19 O19           -8.9531     6.9558    -2.7719 O.3     
  20 C20           -9.0851     5.7000    -2.2519 C.ar    
  21 C21           -7.8382     5.2740    -1.8001 C.ar    
  22 C22          -10.1866     4.8728    -2.1246 C.ar    
  23 C23          -10.0591     3.6126    -1.5483 C.ar    
  24 C24           -8.8067     3.1949    -1.1082 C.ar    
  25 C25           -7.7078     4.0197    -1.2282 C.ar    
  26 O26          -11.0075     2.6605    -1.3152 O.3     
  27 C27           -8.9847     1.8009    -0.5687 C.3     
  28 C28          -10.3629     1.3895    -1.1042 C.3     
  29 N29           -7.3192     0.3748     0.0767 N.am    
  30 C30           -7.9026     0.8693    -1.0333 C.2     
  31 C31           -8.9308     1.7574     0.9297 C.ar    
  32 C32           -9.6515     2.3772     1.9260 C.ar    
  33 C33           -9.3565     2.1251     3.2540 C.ar    
  34 C34           -8.3358     1.2499     3.5781 C.ar    
  35 C35           -7.6104     0.6274     2.5838 C.ar    
  36 C36           -7.9007     0.8749     1.2443 C.ar    
  37 O37           -7.6110     0.6118    -2.1821 O.2     
  38 H38            1.1953    -1.8011    -0.0187 H       
  39 H39            3.3346    -0.5853    -0.0325 H       
  40 H40            4.5107     1.6146    -0.0323 H       
  41 H41            4.3966     4.0489    -0.0190 H       
  42 H42            2.2290     5.2067     0.0078 H       
  43 H43            0.1425     3.9542     0.0217 H       
  44 H44           -2.4494     0.8976     0.0312 H       
  45 H45           -3.7840    -1.4271    -0.8581 H       
  46 H46           -3.7663    -1.4367     0.9218 H       
  47 H47           -4.8143     0.8105     0.9442 H       
  48 H48           -4.8320     0.8201    -0.8356 H       
  49 H49           -6.2719    -1.1987    -0.8321 H       
  50 H50           -6.2542    -1.2082     0.9477 H       
  51 H51           -7.8558     7.9953    -1.3300 H       
  52 H52           -7.2153     8.0922    -3.0014 H       
  53 H53          -11.1519     5.2073    -2.4748 H       
  54 H54           -6.7430     3.6862    -0.8754 H       
  55 H55          -10.9046     0.7986    -0.3656 H       
  56 H56          -10.2664     0.8438    -2.0428 H       
  57 H57          -10.4480     3.0604     1.6705 H       
  58 H58           -9.9222     2.6102     4.0356 H       
  59 H59           -8.1055     1.0532     4.6148 H       
  60 H60           -6.8145    -0.0543     2.8448 H       
@<TRIPOS>BOND
   1    1    2 ar
   2    1   10 ar
   3    2    3 ar
   4    2   11 1
   5    3    4 ar
   6    3   38 1
   7    4    5 ar
   8    4   39 1
   9    5    6 ar
  10    5   10 ar
  11    6    7 ar
  12    6   40 1
  13    7    8 ar
  14    7   41 1
  15    8    9 ar
  16    8   42 1
  17    9   10 ar
  18    9   43 1
  19   11   12 2
  20   11   13 am
  21   13   14 1
  22   13   44 1
  23   14   15 1
  24   14   45 1
  25   14   46 1
  26   15   16 1
  27   15   47 1
  28   15   48 1
  29   16   29 1
  30   16   49 1
  31   16   50 1
  32   17   18 1
  33   17   21 1
  34   18   19 1
  35   18   51 1
  36   18   52 1
  37   19   20 1
  38   20   21 ar
  39   20   22 ar
  40   21   25 ar
  41   22   23 ar
  42   22   53 1
  43   23   24 ar
  44   23   26 1
  45   24   25 ar
  46   24   27 1
  47   25   54 1
  48   26   28 1
  49   27   28 1
  50   27   30 1
  51   27   31 1
  52   28   55 1
  53   28   56 1
  54   29   30 am
  55   29   36 1
  56   30   37 2
  57   31   32 ar
  58   31   36 ar
  59   32   33 ar
  60   32   57 1
  61   33   34 ar
  62   33   58 1
  63   34   35 ar
  64   34   59 1
  65   35   36 ar
  66   35   60 1

#	End of record

