#	Name: ASD00170393
#	Creating user name:	WinNT
#	Creation time:	15. 06. 2019 18:32

#	Modifying user name:	WinNT
#	Modification time:	15. 06. 2019 18:32

#	Program:	/corina/corina34_cracker 3.40 0067  02.08.2006

@<TRIPOS>MOLECULE
ASD00170393
  37   40    0    0    0
SMALL
NO_CHARGES


@<TRIPOS>ATOM
   1 C1            -0.3706     2.1635    -0.1587 C.2     
   2 C2            -0.5903     0.8546     0.1425 C.2     
   3 S3            -2.3067     0.5221     0.0046 S.3     
   4 C4            -2.5993     2.2009    -0.4408 C.2     
   5 N5            -1.4750     2.8458    -0.4590 N.2     
   6 N6            -3.8395     2.7475    -0.7282 N.pl3   
   7 C7             1.0293     2.6859    -0.1306 C.ar    
   8 C8             2.0727     1.7614    -0.1158 C.ar    
   9 C9             1.8018     0.2834    -0.1843 C.3     
  10 C10            0.5108    -0.0955     0.5386 C.3     
  11 C11            1.2831     4.0502    -0.1154 C.ar    
  12 C12            2.5888     4.4986    -0.0656 C.ar    
  13 C13            3.6320     3.5831    -0.0287 C.ar    
  14 C14            3.3750     2.2198    -0.0531 C.ar    
  15 O15            4.9156     4.0259     0.0318 O.3     
  16 C16            5.3500     4.4810     1.2230 C.2     
  17 O17            4.6365     4.3962     2.2026 O.2     
  18 C18            6.6940     5.0830     1.3381 C.ar    
  19 C19            7.1474     5.5557     2.5713 C.ar    
  20 C20            8.4037     6.1164     2.6717 C.ar    
  21 C21            9.2139     6.2113     1.5540 C.ar    
  22 C22            8.7708     5.7449     0.3290 C.ar    
  23 C23            7.5189     5.1767     0.2154 C.ar    
  24 H24           -4.6343     2.1927    -0.6918 H       
  25 H25           -3.9130     3.6851    -0.9657 H       
  26 H26            1.7231    -0.0145    -1.2299 H       
  27 H27            2.6343    -0.2512     0.2732 H       
  28 H28            0.6683    -0.0394     1.6157 H       
  29 H29            0.2278    -1.1124     0.2665 H       
  30 H30            0.4661     4.7560    -0.1426 H       
  31 H31            2.7976     5.5582    -0.0558 H       
  32 H32            4.1936     1.5160    -0.0228 H       
  33 H33            6.5158     5.4829     3.4443 H       
  34 H34            8.7557     6.4824     3.6249 H       
  35 H35           10.1964     6.6518     1.6381 H       
  36 H36            9.4081     5.8224    -0.5395 H       
  37 H37            7.1743     4.8131    -0.7413 H       
@<TRIPOS>BOND
   1    1    2 2
   2    1    7 1
   3    1    5 1
   4    2    3 1
   5    2   10 1
   6    3    4 1
   7    4    5 2
   8    4    6 1
   9    6   24 1
  10    6   25 1
  11    7    8 ar
  12    7   11 ar
  13    8    9 1
  14    8   14 ar
  15    9   10 1
  16    9   26 1
  17    9   27 1
  18   10   28 1
  19   10   29 1
  20   11   12 ar
  21   11   30 1
  22   12   13 ar
  23   12   31 1
  24   13   14 ar
  25   13   15 1
  26   14   32 1
  27   15   16 1
  28   16   17 2
  29   16   18 1
  30   18   19 ar
  31   18   23 ar
  32   19   20 ar
  33   19   33 1
  34   20   21 ar
  35   20   34 1
  36   21   22 ar
  37   21   35 1
  38   22   23 ar
  39   22   36 1
  40   23   37 1

#	End of record

