#	Name: ASD05380137
#	Creating user name:	WinNT
#	Creation time:	15. 06. 2019 20:59

#	Modifying user name:	WinNT
#	Modification time:	15. 06. 2019 20:59

#	Program:	/corina/corina34_cracker 3.40 0067  02.08.2006

@<TRIPOS>MOLECULE
ASD05380137
  59   61    0    0    0
SMALL
NO_CHARGES


@<TRIPOS>ATOM
   1 C1             0.5376     0.5272     0.6533 C.ar    
   2 C2            -0.0324    -0.3405    -0.3003 C.ar    
   3 C3             1.2549     1.6454     0.2238 C.ar    
   4 C4             1.4013     1.8941    -1.1239 C.ar    
   5 C5             0.8402     1.0409    -2.0615 C.ar    
   6 C6             0.1283    -0.0693    -1.6597 C.ar    
   7 N7            -0.7368    -1.4391     0.1034 N.2     
   8 N8            -0.6815     0.7731     2.7572 N.am    
   9 C9             0.3726     0.2594     2.0927 C.2     
  10 C10           -0.8820     0.4541     4.1039 C.ar    
  11 C11           -1.4517     1.3855     4.9624 C.ar    
  12 C12           -1.2787    -0.1771     6.7685 C.ar    
  13 O13            1.1875    -0.4253     2.6812 O.2     
  14 C14           -1.6483     1.0673     6.2918 C.ar    
  15 C15           -0.7165    -1.1088     5.9151 C.ar    
  16 C16           -0.5172    -0.7969     4.5846 C.ar    
  17 C17            1.8686     2.5806     1.2337 C.3     
  18 C18           -0.2975    -2.6350    -0.1772 C.2     
  19 C19            1.0744    -2.8127    -0.7750 C.3     
  20 N20           -1.0804    -3.7253     0.0707 N.pl3   
  21 C21           -2.3522    -3.5850     0.7930 C.3     
  22 C22           -0.6703    -5.0605    -0.3850 C.3     
  23 C23           -1.8084    -5.6715    -1.2085 C.3     
  24 C24           -3.0958    -5.6577    -0.3811 C.3     
  25 C25           -3.4679    -4.2156    -0.0461 C.3     
  26 C26            2.1192    -2.1868     0.1510 C.3     
  27 O27            1.1252    -2.1617    -2.0719 O.3     
  28 O28            0.4599    -4.0564    -2.9945 O.2     
  29 C29            0.7873    -2.9023    -3.1392 C.2     
  30 C30            0.8163    -2.2945    -4.5179 C.3     
  31 H31            1.9569     2.7601    -1.4520 H       
  32 H32            0.9616     1.2474    -3.1146 H       
  33 H33           -0.3054    -0.7286    -2.3969 H       
  34 H34           -1.3010     1.3640     2.3013 H       
  35 H35           -1.7402     2.3576     4.5908 H       
  36 H36           -1.4332    -0.4233     7.8087 H       
  37 H37           -2.0909     1.7912     6.9600 H       
  38 H38           -0.4286    -2.0796     6.2906 H       
  39 H39           -0.0784    -1.5251     3.9185 H       
  40 H40            2.8800     2.2489     1.4685 H       
  41 H41            1.9036     3.5888     0.8210 H       
  42 H42            1.2661     2.5805     2.1421 H       
  43 H43            1.2841    -3.8757    -0.8936 H       
  44 H44           -2.2848    -4.0952     1.7539 H       
  45 H45           -2.5674    -2.5284     0.9522 H       
  46 H46            0.2238    -4.9771    -1.0028 H       
  47 H47           -0.4630    -5.6935     0.4779 H       
  48 H48           -1.9538    -5.0878    -2.1175 H       
  49 H49           -1.5562    -6.6988    -1.4717 H       
  50 H50           -3.9017    -6.1144    -0.9557 H       
  51 H51           -2.9420    -6.2209     0.5393 H       
  52 H52           -4.3973    -4.2026     0.5233 H       
  53 H53           -3.5979    -3.6498    -0.9686 H       
  54 H54            2.0763    -2.6707     1.1267 H       
  55 H55            3.1122    -2.3216    -0.2780 H       
  56 H56            1.9136    -1.1224     0.2640 H       
  57 H57            1.8266    -1.9533    -4.7434 H       
  58 H58            0.5131    -3.0420    -5.2510 H       
  59 H59            0.1300    -1.4485    -4.5565 H       
@<TRIPOS>BOND
   1    1    2 ar
   2    1    3 ar
   3    1    9 1
   4    2    7 1
   5    2    6 ar
   6    3    4 ar
   7    3   17 1
   8    4    5 ar
   9    4   31 1
  10    5    6 ar
  11    5   32 1
  12    6   33 1
  13    7   18 2
  14    8    9 am
  15    8   10 1
  16    8   34 1
  17    9   13 2
  18   10   11 ar
  19   10   16 ar
  20   11   14 ar
  21   11   35 1
  22   12   14 ar
  23   12   15 ar
  24   12   36 1
  25   14   37 1
  26   15   16 ar
  27   15   38 1
  28   16   39 1
  29   17   40 1
  30   17   41 1
  31   17   42 1
  32   18   19 1
  33   18   20 1
  34   19   26 1
  35   19   27 1
  36   19   43 1
  37   20   21 1
  38   20   22 1
  39   21   25 1
  40   21   44 1
  41   21   45 1
  42   22   23 1
  43   22   46 1
  44   22   47 1
  45   23   24 1
  46   23   48 1
  47   23   49 1
  48   24   25 1
  49   24   50 1
  50   24   51 1
  51   25   52 1
  52   25   53 1
  53   26   54 1
  54   26   55 1
  55   26   56 1
  56   27   29 1
  57   28   29 2
  58   29   30 1
  59   30   57 1
  60   30   58 1
  61   30   59 1

#	End of record

