#	Name: ASD01180222
#	Creating user name:	WinNT
#	Creation time:	15. 06. 2019 19:07

#	Modifying user name:	WinNT
#	Modification time:	15. 06. 2019 19:07

#	Program:	/corina/corina34_cracker 3.40 0067  02.08.2006

@<TRIPOS>MOLECULE
ASD01180222
  60   62    0    0    0
SMALL
NO_CHARGES


@<TRIPOS>ATOM
   1 C1            -2.0449    -1.5654     5.1559 C.ar    
   2 C2            -1.6385    -2.3954     4.1309 C.ar    
   3 C3            -0.3992    -3.0293     4.2009 C.ar    
   4 C4             0.4228    -2.8208     5.3069 C.ar    
   5 C5             0.0061    -1.9886     6.3260 C.ar    
   6 C6            -1.2249    -1.3621     6.2512 C.ar    
   7 C7             0.0429    -3.9229     3.1027 C.ar    
   8 N8            -0.7397    -4.1212     2.0509 N.ar    
   9 N9            -0.3964    -4.8859     1.0790 N.ar    
  10 C10            0.7627    -5.5282     1.0615 C.ar    
  11 C11            1.6551    -5.3826     2.1251 C.ar    
  12 C12            1.2895    -4.5544     3.1708 C.ar    
  13 N13            1.0892    -6.3458    -0.0139 N.pl3   
  14 C14            2.4178    -6.9582    -0.0917 C.3     
  15 C15            2.4198    -8.2534     0.6786 C.ar    
  16 C16            3.5166    -8.5943     1.4500 C.ar    
  17 C17            3.5249    -9.7786     2.1576 C.ar    
  18 C18            2.4233   -10.6333     2.0944 C.ar    
  19 C19            1.3199   -10.2833     1.3147 C.ar    
  20 C20            1.3225    -9.0938     0.6158 C.ar    
  21 C21            2.4255   -11.9043     2.8497 C.2     
  22 N22            1.3602   -12.7275     2.7866 N.am    
  23 O23            3.3880   -12.2068     3.5276 O.2     
  24 C24           -1.6741    -0.4542     7.3670 C.3     
  25 F25           -1.2534     0.8535     7.1022 F       
  26 F26           -3.0696    -0.4853     7.4602 F       
  27 F27           -1.1163    -0.8880     8.5744 F       
  28 C28            2.7670    -7.2347    -1.5554 C.3     
  29 C29            2.8878    -5.9093    -2.3101 C.3     
  30 C30            3.1311    -6.1881    -3.7947 C.3     
  31 C31            1.3624   -13.9869     3.5351 C.3     
  32 C32            0.0454   -14.7268     3.2921 C.3     
  33 C33            0.0476   -16.0223     4.0620 C.2     
  34 O34            1.0044   -16.3229     4.7359 O.2     
  35 O35           -1.0133   -16.8422     3.9992 O.3     
  36 H36           -3.0031    -1.0702     5.1006 H       
  37 H37           -2.2796    -2.5537     3.2764 H       
  38 H38            1.3839    -3.3097     5.3664 H       
  39 H39            0.6421    -1.8266     7.1836 H       
  40 H40            2.6042    -5.8979     2.1293 H       
  41 H41            1.9428    -4.4063     4.0180 H       
  42 H42            0.4373    -6.5110    -0.7130 H       
  43 H43            3.1561    -6.2799     0.3361 H       
  44 H44            4.3684    -7.9320     1.4980 H       
  45 H45            4.3820   -10.0438     2.7588 H       
  46 H46            0.4643   -10.9403     1.2616 H       
  47 H47            0.4693    -8.8217     0.0121 H       
  48 H48            0.5921   -12.4861     2.2456 H       
  49 H49            3.7148    -7.7704    -1.6079 H       
  50 H50            1.9819    -7.8403    -2.0081 H       
  51 H51            1.9659    -5.3396    -2.1937 H       
  52 H52            3.7225    -5.3362    -1.9065 H       
  53 H53            4.0530    -6.7578    -3.9111 H       
  54 H54            2.2964    -6.7612    -4.1983 H       
  55 H55            3.2171    -5.2438    -4.3323 H       
  56 H56            2.1943   -14.6068     3.2008 H       
  57 H57            1.4702   -13.7770     4.5992 H       
  58 H58           -0.7866   -14.1069     3.6264 H       
  59 H59           -0.0625   -14.9367     2.2280 H       
  60 H60           -0.9657   -17.6617     4.5102 H       
@<TRIPOS>BOND
   1    1    2 ar
   2    1    6 ar
   3    1   36 1
   4    2    3 ar
   5    2   37 1
   6    3    4 ar
   7    3    7 1
   8    4    5 ar
   9    4   38 1
  10    5    6 ar
  11    5   39 1
  12    6   24 1
  13    7    8 ar
  14    7   12 ar
  15    8    9 ar
  16    9   10 ar
  17   10   11 ar
  18   10   13 1
  19   11   12 ar
  20   11   40 1
  21   12   41 1
  22   13   14 1
  23   13   42 1
  24   14   15 1
  25   14   28 1
  26   14   43 1
  27   15   16 ar
  28   15   20 ar
  29   16   17 ar
  30   16   44 1
  31   17   18 ar
  32   17   45 1
  33   18   19 ar
  34   18   21 1
  35   19   20 ar
  36   19   46 1
  37   20   47 1
  38   21   22 am
  39   21   23 2
  40   22   31 1
  41   22   48 1
  42   24   25 1
  43   24   26 1
  44   24   27 1
  45   28   29 1
  46   28   49 1
  47   28   50 1
  48   29   30 1
  49   29   51 1
  50   29   52 1
  51   30   53 1
  52   30   54 1
  53   30   55 1
  54   31   32 1
  55   31   56 1
  56   31   57 1
  57   32   33 1
  58   32   58 1
  59   32   59 1
  60   33   34 2
  61   33   35 1
  62   35   60 1

#	End of record

