#	Name: ASD01816384
#	Creating user name:	WinNT
#	Creation time:	15. 06. 2019 19:35

#	Modifying user name:	WinNT
#	Modification time:	15. 06. 2019 19:35

#	Program:	/corina/corina34_cracker 3.40 0067  02.08.2006

@<TRIPOS>MOLECULE
ASD01816384
  50   54    0    0    0
SMALL
NO_CHARGES


@<TRIPOS>ATOM
   1 C1            -0.0167     1.3813     0.0096 C.ar    
   2 C2             0.0021    -0.0041     0.0020 C.ar    
   3 C3             1.1983    -0.6908    -0.0127 C.ar    
   4 C4             2.4015     0.0061    -0.0204 C.ar    
   5 C5             2.3789     1.4107    -0.0132 C.ar    
   6 C6             1.1662     2.0917     0.0022 C.ar    
   7 N7             3.6051    -0.6769    -0.0347 N.pl3   
   8 C8             4.7970    -0.0583    -0.0427 C.2     
   9 C9             4.9000     1.3105    -0.0368 C.2     
  10 C10            3.6670     2.1304    -0.0217 C.2     
  11 C11            5.9971     2.2733    -0.0422 C.2     
  12 N12            5.4243     3.4963    -0.0312 N.am    
  13 N13            4.0320     3.3797    -0.0190 N.2     
  14 O14            7.1905     2.0236    -0.0540 O.2     
  15 C15            3.5777    -2.1417    -0.0408 C.3     
  16 C16            3.5550    -2.6377    -1.4636 C.ar    
  17 C17            4.7427    -2.8872    -2.1264 C.ar    
  18 C18            4.7251    -3.3415    -3.4306 C.ar    
  19 C19            3.5133    -3.5480    -4.0760 C.ar    
  20 C20            2.3225    -3.2971    -3.4078 C.ar    
  21 C21            2.3465    -2.8479    -2.1019 C.ar    
  22 N22            3.4922    -4.0086    -5.3999 N.pl3   
  23 C23            2.3872    -4.2501    -6.1410 C.2     
  24 C24            2.7935    -4.6799    -7.3580 C.2     
  25 C25            4.1926    -4.7022    -7.3620 C.2     
  26 N26            4.6122    -4.2945    -6.1913 N.2     
  27 C27            6.0993     4.6628    -0.0317 C.2     
  28 O28            7.3139     4.6616    -0.0426 O.2     
  29 O29            5.4275     5.8292    -0.0200 O.3     
  30 C30            5.2888     8.2604    -0.0070 C.3     
  31 C31            6.2195     7.0462    -0.0213 C.3     
  32 H32           -0.9602     1.9069     0.0170 H       
  33 H33           -0.9289    -0.5516     0.0080 H       
  34 H34            1.2003    -1.7708    -0.0178 H       
  35 H35            1.1505     3.1715     0.0077 H       
  36 H36            5.6983    -0.6533    -0.0538 H       
  37 H37            4.4655    -2.5238     0.4631 H       
  38 H38            2.6860    -2.4906     0.4799 H       
  39 H39            5.6850    -2.7264    -1.6239 H       
  40 H40            5.6530    -3.5355    -3.9480 H       
  41 H41            1.3783    -3.4565    -3.9073 H       
  42 H42            1.4205    -2.6525    -1.5815 H       
  43 H43            1.3641    -4.1233    -5.8191 H       
  44 H44            2.1514    -4.9568    -8.1810 H       
  45 H45            4.8185    -5.0003    -8.1901 H       
  46 H46            4.6519     8.2405    -0.8914 H       
  47 H47            4.6680     8.2319     0.8885 H       
  48 H48            5.8834     9.1740    -0.0080 H       
  49 H49            6.8564     7.0661     0.8631 H       
  50 H50            6.8403     7.0747    -0.9168 H       
@<TRIPOS>BOND
   1    1    2 ar
   2    1    6 ar
   3    1   32 1
   4    2    3 ar
   5    2   33 1
   6    3    4 ar
   7    3   34 1
   8    4    5 ar
   9    4    7 1
  10    5    6 ar
  11    5   10 1
  12    6   35 1
  13    7    8 1
  14    7   15 1
  15    8    9 2
  16    8   36 1
  17    9   10 1
  18    9   11 1
  19   10   13 2
  20   11   12 am
  21   11   14 2
  22   12   13 1
  23   12   27 am
  24   15   16 1
  25   15   37 1
  26   15   38 1
  27   16   17 ar
  28   16   21 ar
  29   17   18 ar
  30   17   39 1
  31   18   19 ar
  32   18   40 1
  33   19   20 ar
  34   19   22 1
  35   20   21 ar
  36   20   41 1
  37   21   42 1
  38   22   23 1
  39   22   26 1
  40   23   24 2
  41   23   43 1
  42   24   25 1
  43   24   44 1
  44   25   26 2
  45   25   45 1
  46   27   28 2
  47   27   29 1
  48   29   31 1
  49   30   31 1
  50   30   46 1
  51   30   47 1
  52   30   48 1
  53   31   49 1
  54   31   50 1

#	End of record

