#	Name: ASD00840835
#	Creating user name:	WinNT
#	Creation time:	15. 06. 2019 18:40

#	Modifying user name:	WinNT
#	Modification time:	15. 06. 2019 18:40

#	Program:	/corina/corina34_cracker 3.40 0067  02.08.2006

@<TRIPOS>MOLECULE
ASD00840835
  90   95    0    0    0
SMALL
NO_CHARGES


@<TRIPOS>ATOM
   1 F1             6.0605    -1.9317    -2.0449 F       
   2 N2             1.0775     1.4652    -0.7075 N.ar    
   3 C3             1.3357     0.1739    -0.8299 C.ar    
   4 C4             1.2533    -0.6717     0.2692 C.ar    
   5 C5             0.8966    -0.1454     1.4983 C.ar    
   6 C6             0.6337     1.2150     1.5849 C.ar    
   7 C7             0.7351     1.9960     0.4511 C.ar    
   8 C8             1.5478    -2.1425     0.1248 C.3     
   9 C9             1.2650    -2.8697     1.4219 C.2     
  10 C10            0.7247    -2.7430    -1.0166 C.3     
  11 C11           -0.7369    -2.4566    -0.7866 C.2     
  12 N12           -1.6637    -2.9739    -1.6171 N.am    
  13 O13           -1.0790    -1.7606     0.1458 O.2     
  14 C14           -3.0811    -2.6142    -1.4741 C.3     
  15 C15           -3.9070    -3.8995    -1.3617 C.3     
  16 C16           -3.6053    -4.8015    -2.5606 C.3     
  17 C17           -2.1221    -5.1787    -2.5570 C.3     
  18 C18           -1.2752    -3.9035    -2.6865 C.3     
  19 N19           -4.4205    -6.0205    -2.4734 N.3     
  20 C20           -4.2458    -6.8575    -3.6686 C.3     
  21 C21           -5.0472    -8.1510    -3.5038 C.3     
  22 N22           -6.4646    -7.8230    -3.2966 N.3     
  23 C23           -6.6392    -6.9860    -2.1013 C.3     
  24 C24           -5.8379    -5.6926    -2.2661 C.3     
  25 C25           -7.2797    -9.0420    -3.2093 C.3     
  26 O26            0.1931    -2.9489     1.9839 O.2     
  27 N27            2.4234    -3.4112     1.8339 N.am    
  28 C28            3.0248    -2.3664    -0.1089 C.ar    
  29 C29            3.4768    -3.1353     0.9587 C.ar    
  30 C30            3.8823    -1.9643    -1.1091 C.ar    
  31 C31            5.2179    -2.3242    -1.0645 C.ar    
  32 C32            5.6902    -3.0970     0.0013 C.ar    
  33 C33            4.8167    -3.5010     1.0105 C.ar    
  34 C34            2.2866    -5.9872     2.7929 C.ar    
  35 C35            3.3355    -6.7952     2.3954 C.ar    
  36 C36            1.0053    -6.5016     2.8612 C.ar    
  37 C37            0.7729    -7.8239     2.5320 C.ar    
  38 C38            1.8217    -8.6317     2.1341 C.ar    
  39 C39            3.1029    -8.1174     2.0658 C.ar    
  40 H40            1.6401    -9.6648     1.8769 H       
  41 H41            4.3365    -6.3934     2.3420 H       
  42 C42           -8.6929    -8.6787    -2.7488 C.3     
  43 C43           -9.5418    -9.9483    -2.6579 C.3     
  44 C44            7.0706    -3.4740     0.0558 C.1     
  45 N45            8.1657    -3.7731     0.0990 N.1     
  46 O46            1.6839    -0.3298    -2.0406 O.3     
  47 C47            2.1759    -0.1419    -4.3992 C.3     
  48 C48            1.6426     0.5668    -3.1526 C.3     
  49 S49            2.5840    -4.3037     3.2195 S.o2    
  50 O50            3.9522    -4.2204     3.5941 O.2     
  51 O51            1.5189    -3.9123     4.0747 O.2     
  52 H52            0.8241    -0.7785     2.3702 H       
  53 H53            0.3525     1.6575     2.5291 H       
  54 H54            0.5320     3.0549     0.5132 H       
  55 H55            1.0373    -2.3000    -1.9622 H       
  56 H56            0.8828    -3.8209    -1.0506 H       
  57 H57           -3.2166    -2.0130    -0.5751 H       
  58 H58           -3.4042    -2.0475    -2.3474 H       
  59 H59           -3.6464    -4.4200    -0.4401 H       
  60 H60           -4.9681    -3.6504    -1.3518 H       
  61 H61           -3.8430    -4.2713    -3.4829 H       
  62 H62           -1.8783    -5.6871    -1.6242 H       
  63 H63           -1.9128    -5.8399    -3.3978 H       
  64 H64           -1.4523    -3.4445    -3.6592 H       
  65 H65           -0.2193    -4.1543    -2.5853 H       
  66 H66           -4.6028    -6.3179    -4.5458 H       
  67 H67           -3.1899    -7.0973    -3.7935 H       
  68 H68           -4.9425    -8.7605    -4.4014 H       
  69 H69           -4.6722    -8.7039    -2.6426 H       
  70 H70           -7.6952    -6.7462    -1.9764 H       
  71 H71           -6.2823    -7.5257    -1.2241 H       
  72 H72           -5.9426    -5.0830    -1.3686 H       
  73 H73           -6.2129    -5.1396    -3.1274 H       
  74 H74           -7.3279    -9.5178    -4.1888 H       
  75 H75           -6.8297    -9.7295    -2.4931 H       
  76 H76            3.5117    -1.3677    -1.9295 H       
  77 H77            5.1818    -4.0978     1.8333 H       
  78 H78            0.1859    -5.8704     3.1721 H       
  79 H79           -0.2280    -8.2259     2.5860 H       
  80 H80            3.9224    -8.7487     1.7553 H       
  81 H81           -8.6448    -8.2029    -1.7693 H       
  82 H82           -9.1429    -7.9912    -3.4650 H       
  83 H83           -9.5899   -10.4242    -3.6374 H       
  84 H84           -9.0918   -10.6358    -1.9417 H       
  85 H85          -10.5485    -9.6895    -2.3299 H       
  86 H86            2.2265     0.5664    -5.2262 H       
  87 H87            3.1722    -0.5346    -4.1957 H       
  88 H88            1.5090    -0.9625    -4.6640 H       
  89 H89            0.6140     0.8829    -3.3264 H       
  90 H90            2.2597     1.4394    -2.9388 H       
@<TRIPOS>BOND
   1    1   31 1
   2    2    3 ar
   3    2    7 ar
   4    3    4 ar
   5    3   46 1
   6    4    5 ar
   7    4    8 1
   8    5    6 ar
   9    5   52 1
  10    6    7 ar
  11    6   53 1
  12    7   54 1
  13    8    9 1
  14    8   10 1
  15    8   28 1
  16    9   26 2
  17    9   27 am
  18   10   11 1
  19   10   55 1
  20   10   56 1
  21   11   12 am
  22   11   13 2
  23   12   14 1
  24   12   18 1
  25   14   15 1
  26   14   57 1
  27   14   58 1
  28   15   16 1
  29   15   59 1
  30   15   60 1
  31   16   17 1
  32   16   19 1
  33   16   61 1
  34   17   18 1
  35   17   62 1
  36   17   63 1
  37   18   64 1
  38   18   65 1
  39   19   20 1
  40   19   24 1
  41   20   21 1
  42   20   66 1
  43   20   67 1
  44   21   22 1
  45   21   68 1
  46   21   69 1
  47   22   23 1
  48   22   25 1
  49   23   24 1
  50   23   70 1
  51   23   71 1
  52   24   72 1
  53   24   73 1
  54   25   42 1
  55   25   74 1
  56   25   75 1
  57   27   49 am
  58   27   29 1
  59   28   29 ar
  60   28   30 ar
  61   29   33 ar
  62   30   31 ar
  63   30   76 1
  64   31   32 ar
  65   32   33 ar
  66   32   44 1
  67   33   77 1
  68   34   35 ar
  69   34   36 ar
  70   34   49 1
  71   35   41 1
  72   35   39 ar
  73   36   37 ar
  74   36   78 1
  75   37   38 ar
  76   37   79 1
  77   38   39 ar
  78   38   40 1
  79   39   80 1
  80   42   43 1
  81   42   81 1
  82   42   82 1
  83   43   83 1
  84   43   84 1
  85   43   85 1
  86   44   45 3
  87   46   48 1
  88   47   48 1
  89   47   86 1
  90   47   87 1
  91   47   88 1
  92   48   89 1
  93   48   90 1
  94   49   50 2
  95   49   51 2

#	End of record

