#	Name: ASD00451028
#	Creating user name:	WinNT
#	Creation time:	15. 06. 2019 18:36

#	Modifying user name:	WinNT
#	Modification time:	15. 06. 2019 18:36

#	Program:	/corina/corina34_cracker 3.40 0067  02.08.2006

@<TRIPOS>MOLECULE
ASD00451028
  60   64    0    0    0
SMALL
NO_CHARGES


@<TRIPOS>ATOM
   1 C1             0.0436     1.2797     0.1104 C.ar    
   2 C2            -0.0136    -0.0956     0.0673 C.ar    
   3 C3             1.2943     1.9290     0.0458 C.ar    
   4 N4            -1.1332     2.0293     0.2120 N.am    
   5 C5             1.1482    -0.8548    -0.0389 C.ar    
   6 C6             1.3893     3.3294     0.0876 C.ar    
   7 C7             2.4757     1.1556    -0.0627 C.ar    
   8 C8             2.3827    -0.2506    -0.1039 C.ar    
   9 C9             2.6122     3.9244     0.0235 C.ar    
  10 C10            3.7201     1.8039    -0.1265 C.ar    
  11 O11            3.5075    -1.0061    -0.2070 O.3     
  12 C12            3.7747     3.1635    -0.0837 C.ar    
  13 C13            4.2278    -1.2343     0.9212 C.ar    
  14 C14            5.4482    -1.9033     0.8686 C.ar    
  15 C15            3.7696    -0.8008     2.1634 C.ar    
  16 C16            6.1604    -2.1197     2.0486 C.ar    
  17 N17            6.1974    -2.4581    -0.1669 N.am    
  18 C18            4.5301    -1.0516     3.2879 C.ar    
  19 N19            7.3197    -2.7988     1.6953 N.am    
  20 N20            5.6805    -1.6928     3.2070 N.ar    
  21 C21            7.3164    -2.9885     0.3628 C.2     
  22 C22            8.3704    -3.2347     2.6185 C.3     
  23 O23            8.1908    -3.5536    -0.2672 O.2     
  24 C24           -2.2611     1.5971    -0.3860 C.2     
  25 O25           -2.2327     0.6119    -1.0981 O.2     
  26 N26           -3.4206     2.2570    -0.1946 N.am    
  27 C27           -4.6087     1.7574    -0.7407 C.ar    
  28 C28            5.8312    -2.4643    -1.5853 C.3     
  29 C29            6.3850    -1.2080    -2.2605 C.3     
  30 C30           -4.5923     1.1156    -1.9718 C.ar    
  31 C31           -5.7660     0.6230    -2.5083 C.ar    
  32 C32           -6.9573     0.7687    -1.8199 C.ar    
  33 C33           -6.9765     1.4081    -0.5926 C.ar    
  34 C34           -5.8050     1.8976    -0.0494 C.ar    
  35 Cl35          -8.4307     0.1490    -2.4972 Cl      
  36 C36           -8.2760     1.5654     0.1542 C.3     
  37 F37           -8.0432     2.2380     1.3586 F       
  38 F38           -9.1752     2.3014    -0.6248 F       
  39 F39           -8.8158     0.3028     0.4219 F       
  40 H40           -0.9718    -0.5913     0.1169 H       
  41 H41           -1.1373     2.8600     0.7127 H       
  42 H42            1.0799    -1.9322    -0.0703 H       
  43 H43            0.4966     3.9317     0.1698 H       
  44 H44            2.6824     5.0016     0.0559 H       
  45 H45            4.6291     1.2266    -0.2090 H       
  46 H46            4.7327     3.6595    -0.1336 H       
  47 H47            2.8303    -0.2741     2.2457 H       
  48 H48            4.1769    -0.7164     4.2519 H       
  49 H49            8.1453    -4.2392     2.9769 H       
  50 H50            9.3296    -3.2401     2.1009 H       
  51 H51            8.4179    -2.5492     3.4647 H       
  52 H52           -3.4318     3.0782     0.3216 H       
  53 H53            6.2499    -3.3491    -2.0648 H       
  54 H54            4.7454    -2.4791    -1.6802 H       
  55 H55            6.1125    -1.2126    -3.3159 H       
  56 H56            5.9662    -0.3232    -1.7810 H       
  57 H57            7.4707    -1.1931    -2.1657 H       
  58 H58           -3.6626     1.0020    -2.5096 H       
  59 H59           -5.7538     0.1241    -3.4660 H       
  60 H60           -5.8205     2.3964     0.9084 H       
@<TRIPOS>BOND
   1    1    2 ar
   2    1    3 ar
   3    1    4 1
   4    2    5 ar
   5    2   40 1
   6    3    6 ar
   7    3    7 ar
   8    4   24 am
   9    4   41 1
  10    5    8 ar
  11    5   42 1
  12    6    9 ar
  13    6   43 1
  14    7    8 ar
  15    7   10 ar
  16    8   11 1
  17    9   12 ar
  18    9   44 1
  19   10   12 ar
  20   10   45 1
  21   11   13 1
  22   12   46 1
  23   13   15 ar
  24   13   14 ar
  25   14   16 ar
  26   14   17 1
  27   15   18 ar
  28   15   47 1
  29   16   19 1
  30   16   20 ar
  31   17   21 am
  32   17   28 1
  33   18   20 ar
  34   18   48 1
  35   19   22 1
  36   19   21 am
  37   21   23 2
  38   22   49 1
  39   22   50 1
  40   22   51 1
  41   24   25 2
  42   24   26 am
  43   26   27 1
  44   26   52 1
  45   27   30 ar
  46   27   34 ar
  47   28   29 1
  48   28   53 1
  49   28   54 1
  50   29   55 1
  51   29   56 1
  52   29   57 1
  53   30   31 ar
  54   30   58 1
  55   31   32 ar
  56   31   59 1
  57   32   33 ar
  58   32   35 1
  59   33   34 ar
  60   33   36 1
  61   34   60 1
  62   36   37 1
  63   36   38 1
  64   36   39 1

#	End of record

