#	Name: ASD01940600
#	Creating user name:	WinNT
#	Creation time:	15. 06. 2019 20:12

#	Modifying user name:	WinNT
#	Modification time:	15. 06. 2019 20:12

#	Program:	/corina/corina34_cracker 3.40 0067  02.08.2006

@<TRIPOS>MOLECULE
ASD01940600
  46   48    0    0    0
SMALL
NO_CHARGES


@<TRIPOS>ATOM
   1 C1             0.5477     1.6105    -0.0041 C.ar    
   2 C2             0.2391     0.2577     0.2188 C.ar    
   3 C3             1.2672    -0.6251     0.5152 C.ar    
   4 N4             2.5165    -0.2126     0.5896 N.ar    
   5 C5             2.8553     1.0435     0.3890 C.ar    
   6 C6             1.8956     2.0031     0.0857 C.ar    
   7 N7             2.2616     3.3267    -0.1250 N.pl3   
   8 C8             3.4566     3.8160     0.4131 C.ar    
   9 C9            -0.5080     2.5872    -0.3282 C.2     
  10 O10           -1.0743     3.1888     0.5639 O.2     
  11 N11           -0.8455     2.8131    -1.6134 N.am    
  12 O12           -1.0437    -0.1777     0.1456 O.3     
  13 C13           -1.2753    -1.5081     0.2963 C.ar    
  14 C14            4.0341     3.1895     1.5094 C.ar    
  15 C15            5.2143     3.6746     2.0384 C.ar    
  16 C16            5.8218     4.7839     1.4781 C.ar    
  17 C17            5.2500     5.4119     0.3861 C.ar    
  18 C18            4.0719     4.9279    -0.1524 C.ar    
  19 I19            7.6113     5.5151     2.2855 I       
  20 F20            3.5163     5.5376    -1.2223 F       
  21 C21           -1.2749    -2.0732     1.5623 C.ar    
  22 C22           -1.5123    -3.4323     1.7126 C.ar    
  23 C23           -1.7497    -4.2222     0.5941 C.ar    
  24 C24           -1.7489    -3.6554    -0.6654 C.ar    
  25 C25           -1.5183    -2.3011    -0.8166 C.ar    
  26 N26           -1.5123    -4.0056     2.9863 N.am    
  27 S27           -2.7866    -3.7457     4.0113 S.o2    
  28 C28           -4.1887    -4.5707     3.2087 C.3     
  29 O29           -2.4224    -4.4280     5.2034 O.2     
  30 O30           -2.9642    -2.3359     3.9993 O.2     
  31 H31            1.0402    -1.6667     0.6882 H       
  32 H32            3.8933     1.3329     0.4611 H       
  33 H33            1.6886     3.9114    -0.6452 H       
  34 H34           -0.3937     2.3332    -2.3250 H       
  35 H35           -1.5401     3.4557    -1.8266 H       
  36 H36            3.5607     2.3238     1.9484 H       
  37 H37            5.6634     3.1871     2.8912 H       
  38 H38            5.7265     6.2780    -0.0490 H       
  39 H39           -1.0898    -1.4571     2.4298 H       
  40 H40           -1.9346    -5.2800     0.7097 H       
  41 H41           -1.9332    -4.2709    -1.5335 H       
  42 H42           -1.5230    -1.8600    -1.8024 H       
  43 H43           -0.7658    -4.5560     3.2704 H       
  44 H44           -4.0055    -5.6446     3.1714 H       
  45 H45           -5.0983    -4.3769     3.7772 H       
  46 H46           -4.3048    -4.1864     2.1953 H       
@<TRIPOS>BOND
   1    1    2 ar
   2    1    6 ar
   3    1    9 1
   4    2    3 ar
   5    2   12 1
   6    3    4 ar
   7    3   31 1
   8    4    5 ar
   9    5    6 ar
  10    5   32 1
  11    6    7 1
  12    7    8 1
  13    7   33 1
  14    8   14 ar
  15    8   18 ar
  16    9   10 2
  17    9   11 am
  18   11   34 1
  19   11   35 1
  20   12   13 1
  21   13   21 ar
  22   13   25 ar
  23   14   15 ar
  24   14   36 1
  25   15   16 ar
  26   15   37 1
  27   16   17 ar
  28   16   19 1
  29   17   18 ar
  30   17   38 1
  31   18   20 1
  32   21   22 ar
  33   21   39 1
  34   22   23 ar
  35   22   26 1
  36   23   24 ar
  37   23   40 1
  38   24   25 ar
  39   24   41 1
  40   25   42 1
  41   26   27 am
  42   26   43 1
  43   27   28 1
  44   27   29 2
  45   27   30 2
  46   28   44 1
  47   28   45 1
  48   28   46 1

#	End of record

