#	Name: ASD01900457
#	Creating user name:	WinNT
#	Creation time:	15. 06. 2019 19:51

#	Modifying user name:	WinNT
#	Modification time:	15. 06. 2019 19:51

#	Program:	/corina/corina34_cracker 3.40 0067  02.08.2006

@<TRIPOS>MOLECULE
ASD01900457
  41   45    0    0    0
SMALL
NO_CHARGES


@<TRIPOS>ATOM
   1 C1             0.3966     3.4552     0.6367 C.ar    
   2 C2             0.8962     4.3386     1.6127 C.ar    
   3 C3             2.2760     4.4881     1.7477 C.ar    
   4 C4             3.0972     3.7574     0.9118 C.ar    
   5 C5             2.5354     2.9042    -0.0290 C.ar    
   6 N6             1.2332     2.7754    -0.1438 N.ar    
   7 N7            -1.3580     4.3635     1.6930 N.2     
   8 N8            -0.1860     4.8859     2.2497 N.pl3   
   9 C9            -1.0632     3.5221     0.7378 C.2     
  10 N10           -1.9772     2.8079    -0.0430 N.pl3   
  11 C11           -3.3487     3.0490     0.0896 C.ar    
  12 C12           -3.8044     4.3286     0.3811 C.ar    
  13 C13           -5.1591     4.5657     0.5113 C.ar    
  14 C14           -6.0647     3.5251     0.3508 C.ar    
  15 C15           -5.6097     2.2477     0.0602 C.ar    
  16 C16           -4.2558     2.0104    -0.0759 C.ar    
  17 Cl17          -5.7294     6.1642     0.8762 Cl      
  18 O18           -7.3982     3.7588     0.4790 O.3     
  19 N19          -10.1307     4.3340     0.6222 N.ar    
  20 C20          -11.4124     4.6029     0.6931 C.ar    
  21 C21          -12.1280     5.0664    -0.4094 C.ar    
  22 C22          -11.4931     5.2521    -1.6054 C.ar    
  23 C23          -10.1197     4.9625    -1.6742 C.ar    
  24 C24           -9.3772     5.1203    -2.8583 C.ar    
  25 C25           -8.0496     4.8180    -2.8451 C.ar    
  26 N26           -7.4425     4.3811    -1.7503 N.ar    
  27 C27           -8.0725     4.2087    -0.6067 C.ar    
  28 C28           -9.4532     4.4940    -0.5148 C.ar    
  29 H29            2.6914     5.1578     2.4862 H       
  30 H30            4.1706     3.8493     0.9889 H       
  31 H31            3.1825     2.3355    -0.6804 H       
  32 H32           -0.1460     5.5322     2.9720 H       
  33 H33           -1.6602     2.1453    -0.6765 H       
  34 H34           -3.0999     5.1375     0.5063 H       
  35 H35           -6.3146     1.4389    -0.0641 H       
  36 H36           -3.9023     1.0163    -0.3066 H       
  37 H37          -11.9276     4.4610     1.6316 H       
  38 H38          -13.1832     5.2782    -0.3189 H       
  39 H39          -12.0304     5.6102    -2.4711 H       
  40 H40           -9.8515     5.4743    -3.7617 H       
  41 H41           -7.4751     4.9371    -3.7519 H       
@<TRIPOS>BOND
   1    1    2 ar
   2    1    6 ar
   3    1    9 1
   4    2    3 ar
   5    2    8 1
   6    3    4 ar
   7    3   29 1
   8    4    5 ar
   9    4   30 1
  10    5    6 ar
  11    5   31 1
  12    7    8 1
  13    7    9 2
  14    8   32 1
  15    9   10 1
  16   10   11 1
  17   10   33 1
  18   11   12 ar
  19   11   16 ar
  20   12   13 ar
  21   12   34 1
  22   13   14 ar
  23   13   17 1
  24   14   15 ar
  25   14   18 1
  26   15   16 ar
  27   15   35 1
  28   16   36 1
  29   18   27 1
  30   19   20 ar
  31   19   28 ar
  32   20   21 ar
  33   20   37 1
  34   21   22 ar
  35   21   38 1
  36   22   23 ar
  37   22   39 1
  38   23   24 ar
  39   23   28 ar
  40   24   25 ar
  41   24   40 1
  42   25   26 ar
  43   25   41 1
  44   26   27 ar
  45   27   28 ar

#	End of record

