#	Name: ASD01890158
#	Creating user name:	WinNT
#	Creation time:	15. 06. 2019 19:50

#	Modifying user name:	WinNT
#	Modification time:	15. 06. 2019 19:50

#	Program:	/corina/corina34_cracker 3.40 0067  02.08.2006

@<TRIPOS>MOLECULE
ASD01890158
  28   29    0    0    0
SMALL
NO_CHARGES


@<TRIPOS>ATOM
   1 C1            -0.0178     1.4579     0.0101 C.2     
   2 C2             0.0021    -0.0041     0.0020 C.2     
   3 C3             1.1810    -0.6635    -0.0128 C.2     
   4 O4             1.0282     2.0809     0.0034 O.2     
   5 C5            -1.3074     2.1793     0.0201 C.ar    
   6 C6            -1.3305     3.5781     0.0278 C.ar    
   7 C7            -2.5416     4.2449     0.0367 C.ar    
   8 C8            -3.7262     3.5317     0.0380 C.ar    
   9 C9            -3.7092     2.1475     0.0308 C.ar    
  10 C10           -2.5093     1.4683     0.0161 C.ar    
  11 F11           -0.1732     4.2751     0.0270 F       
  12 C12            1.2009    -2.1340    -0.0209 C.ar    
  13 C13            2.4202    -2.8205    -0.0362 C.ar    
  14 C14            2.4310    -4.1986    -0.0437 C.ar    
  15 C15            1.2385    -4.9042    -0.0367 C.ar    
  16 C16            0.0273    -4.2313    -0.0215 C.ar    
  17 C17            0.0009    -2.8534    -0.0075 C.ar    
  18 Cl18           1.2620    -6.6401    -0.0474 Cl      
  19 H19           -0.9258    -0.5567     0.0079 H       
  20 H20            2.1089    -0.1109    -0.0187 H       
  21 H21           -2.5625     5.3246     0.0430 H       
  22 H22           -4.6697     4.0573     0.0449 H       
  23 H23           -4.6388     1.5978     0.0326 H       
  24 H24           -2.4990     0.3884     0.0057 H       
  25 H25            3.3504    -2.2718    -0.0425 H       
  26 H26            3.3712    -4.7298    -0.0556 H       
  27 H27           -0.8982    -4.7879    -0.0164 H       
  28 H28           -0.9438    -2.3303     0.0092 H       
@<TRIPOS>BOND
   1    1    2 1
   2    1    4 2
   3    1    5 1
   4    2    3 2
   5    2   19 1
   6    3   12 1
   7    3   20 1
   8    5    6 ar
   9    5   10 ar
  10    6    7 ar
  11    6   11 1
  12    7    8 ar
  13    7   21 1
  14    8    9 ar
  15    8   22 1
  16    9   10 ar
  17    9   23 1
  18   10   24 1
  19   12   13 ar
  20   12   17 ar
  21   13   14 ar
  22   13   25 1
  23   14   15 ar
  24   14   26 1
  25   15   16 ar
  26   15   18 1
  27   16   17 ar
  28   16   27 1
  29   17   28 1

#	End of record

