#	Name: ASD09320006
#	Creating user name:	WinNT
#	Creation time:	15. 06. 2019 21:21

#	Modifying user name:	WinNT
#	Modification time:	15. 06. 2019 21:21

#	Program:	/corina/corina34_cracker 3.40 0067  02.08.2006

@<TRIPOS>MOLECULE
ASD09320006
  54   57    0    0    0
SMALL
NO_CHARGES


@<TRIPOS>ATOM
   1 C1            -0.0179     1.4685     0.0101 C.2     
   2 C2             0.0021    -0.0041     0.0020 C.2     
   3 C3             1.1573    -0.6473    -0.0614 C.2     
   4 C4             1.2652     2.1881     0.0017 C.2     
   5 C5             2.4105     1.5228    -0.0550 C.2     
   6 C6             3.7135     2.2999    -0.0405 C.3     
   7 C7             4.6075     1.7103     1.0550 C.3     
   8 C8             4.7812     0.2077     0.8246 C.3     
   9 C9             5.7004    -0.3726     1.8846 C.3     
  10 C10            7.1481     0.1343     1.8550 C.3     
  11 C11            7.9233    -1.0192     2.5481 C.3     
  12 C12            7.0729    -2.2751     2.3872 C.2     
  13 C13            5.9005    -1.8736     1.5419 C.3     
  14 C14            6.2579    -2.0208     0.0615 C.3     
  15 C15            4.5853    -2.5759     1.8164 C.3     
  16 C16            3.5529    -2.0095     0.8288 C.3     
  17 C17            3.4208    -0.4950     0.9577 C.3     
  18 C18            2.4842     0.0267    -0.1356 C.3     
  19 C19            3.1198    -0.3377    -1.4788 C.3     
  20 O20           -1.0720     2.0763     0.0184 O.2     
  21 O21            7.2974    -3.3691     2.8465 O.2     
  22 O22            4.3612     2.1796    -1.3086 O.3     
  23 H23            5.2048     0.0340    -0.1646 H       
  24 H24            2.9859    -0.2541     1.9277 H       
  25 H25            5.2692    -0.2419     2.8771 H       
  26 C26            3.9953     3.1937    -2.2466 C.3     
  27 C27            4.7165     2.9755    -3.5112 C.1     
  28 C28            5.2916     2.8015    -4.5198 C.1     
  29 C29            6.0127     2.5834    -5.7844 C.3     
  30 H30           -0.9239    -0.5580     0.0480 H       
  31 H31            1.1369    -1.7271    -0.0587 H       
  32 H32            1.2742     3.2674     0.0417 H       
  33 H33            3.5135     3.3499     0.1732 H       
  34 H34            5.5827     2.1965     1.0282 H       
  35 H35            4.1463     1.8770     2.0284 H       
  36 H36            7.4902     0.2687     0.8288 H       
  37 H37            7.2453     1.0608     2.4210 H       
  38 H38            8.8915    -1.1599     2.0675 H       
  39 H39            8.0604    -0.7942     3.6058 H       
  40 H40            7.1795    -1.4768    -0.1456 H       
  41 H41            6.3976    -3.0755    -0.1753 H       
  42 H42            5.4514    -1.6150    -0.5491 H       
  43 H43            4.6980    -3.6489     1.6610 H       
  44 H44            4.2663    -2.3797     2.8401 H       
  45 H45            3.8618    -2.2541    -0.1876 H       
  46 H46            2.5841    -2.4688     1.0248 H       
  47 H47            2.4764     0.0036    -2.2897 H       
  48 H48            4.0947     0.1426    -1.5617 H       
  49 H49            3.2410    -1.4191    -1.5418 H       
  50 H50            2.9215     3.1501    -2.4285 H       
  51 H51            4.2562     4.1724    -1.8438 H       
  52 H52            5.7336     3.3569    -6.4999 H       
  53 H53            7.0865     2.6270    -5.6025 H       
  54 H54            5.7519     1.6047    -6.1872 H       
@<TRIPOS>BOND
   1    1    2 1
   2    1    4 1
   3    1   20 2
   4    2    3 2
   5    2   30 1
   6    3   18 1
   7    3   31 1
   8    4    5 2
   9    4   32 1
  10    5    6 1
  11    5   18 1
  12    6    7 1
  13    6   22 1
  14    6   33 1
  15    7    8 1
  16    7   34 1
  17    7   35 1
  18    8    9 1
  19    8   23 1
  20    8   17 1
  21    9   10 1
  22    9   13 1
  23    9   25 1
  24   10   11 1
  25   10   36 1
  26   10   37 1
  27   11   12 1
  28   11   38 1
  29   11   39 1
  30   12   13 1
  31   12   21 2
  32   13   14 1
  33   13   15 1
  34   14   40 1
  35   14   41 1
  36   14   42 1
  37   15   16 1
  38   15   43 1
  39   15   44 1
  40   16   17 1
  41   16   45 1
  42   16   46 1
  43   17   24 1
  44   17   18 1
  45   18   19 1
  46   19   47 1
  47   19   48 1
  48   19   49 1
  49   22   26 1
  50   26   27 1
  51   26   50 1
  52   26   51 1
  53   27   28 3
  54   28   29 1
  55   29   52 1
  56   29   53 1
  57   29   54 1

#	End of record

