#	Name: ASD02560101
#	Creating user name:	WinNT
#	Creation time:	15. 06. 2019 20:24

#	Modifying user name:	WinNT
#	Modification time:	15. 06. 2019 20:24

#	Program:	/corina/corina34_cracker 3.40 0067  02.08.2006

@<TRIPOS>MOLECULE
ASD02560101
  56   59    0    0    0
SMALL
NO_CHARGES


@<TRIPOS>ATOM
   1 N1            -0.4276     1.7873     0.3459 N.2     
   2 N2            -0.6182     0.5918     0.1018 N.2     
   3 C3             0.9757     2.1581     0.1218 C.3     
   4 N4             1.7049     0.8658     0.0695 N.3     
   5 C5             0.6210    -0.0660    -0.3324 C.3     
   6 S6             0.8164    -1.6621     0.5071 S.3     
   7 C7             0.7208    -1.2144     2.2624 C.3     
   8 C8             0.8688    -2.4544     3.1059 C.2     
   9 O9             1.0235    -3.5338     2.5752 O.2     
  10 N10            0.8292    -2.3637     4.4500 N.am    
  11 Br11           1.1658     3.1209    -1.5817 Br      
  12 C12            2.7145     0.9007    -0.8898 C.ar    
  13 C13            0.8479    -3.5207     5.2276 C.ar    
  14 C14            1.2438    -3.4553     6.5602 C.ar    
  15 C15            1.2634    -4.5955     7.3307 C.ar    
  16 C16            0.8850    -5.8207     6.7731 C.ar    
  17 C17            0.4879    -5.8826     5.4342 C.ar    
  18 C18            0.4653    -4.7371     4.6710 C.ar    
  19 C19            0.9052    -7.0446     7.5954 C.2     
  20 O20            0.5402    -8.2244     7.0565 O.3     
  21 O21            1.2510    -6.9891     8.7589 O.2     
  22 C22            3.7581     1.8459    -0.7914 C.ar    
  23 C23            2.7065     0.0084    -1.9410 C.ar    
  24 C24            3.7105     0.0347    -2.9040 C.ar    
  25 C25            4.7265     0.9388    -2.8361 C.ar    
  26 C26            4.7743     1.8625    -1.7783 C.ar    
  27 C27            5.8108     2.8074    -1.6832 C.ar    
  28 C28            5.8263     3.6879    -0.6454 C.ar    
  29 C29            4.8285     3.6678     0.3271 C.ar    
  30 C30            3.8076     2.7691     0.2647 C.ar    
  31 C31            5.8016     0.9455    -3.8921 C.3     
  32 C32            6.9945     0.1172    -3.4106 C.3     
  33 C33            1.6519    -2.1345     7.1600 C.3     
  34 H34            1.3434     2.7683     0.9467 H       
  35 H35            0.6194    -0.2026    -1.4138 H       
  36 H36            1.5206    -0.5139     2.5028 H       
  37 H37           -0.2434    -0.7489     2.4666 H       
  38 H38            0.7877    -1.4935     4.8764 H       
  39 H39            1.5711    -4.5440     8.3646 H       
  40 H40            0.1950    -6.8273     5.0004 H       
  41 H41            0.1586    -4.7842     3.6365 H       
  42 H42            0.5697    -8.9990     7.6346 H       
  43 H43            1.9122    -0.7193    -2.0175 H       
  44 H44            3.6837    -0.6740    -3.7186 H       
  45 H45            6.5910     2.8343    -2.4295 H       
  46 H46            6.6239     4.4126    -0.5745 H       
  47 H47            4.8639     4.3774     1.1405 H       
  48 H48            3.0409     2.7649     1.0254 H       
  49 H49            5.4088     0.5153    -4.8133 H       
  50 H50            6.1223     1.9706    -4.0776 H       
  51 H51            7.7722     0.1220    -4.1743 H       
  52 H52            7.3874     0.5474    -2.4893 H       
  53 H53            6.6738    -0.9079    -3.2250 H       
  54 H54            0.7770    -1.6427     7.5853 H       
  55 H55            2.3902    -2.3040     7.9437 H       
  56 H56            2.0837    -1.5013     6.3849 H       
@<TRIPOS>BOND
   1    1    2 2
   2    1    3 1
   3    2    5 1
   4    3    4 1
   5    3   11 1
   6    3   34 1
   7    4    5 1
   8    4   12 1
   9    5    6 1
  10    5   35 1
  11    6    7 1
  12    7    8 1
  13    7   36 1
  14    7   37 1
  15    8    9 2
  16    8   10 am
  17   10   13 1
  18   10   38 1
  19   12   22 ar
  20   12   23 ar
  21   13   14 ar
  22   13   18 ar
  23   14   15 ar
  24   14   33 1
  25   15   16 ar
  26   15   39 1
  27   16   17 ar
  28   16   19 1
  29   17   18 ar
  30   17   40 1
  31   18   41 1
  32   19   20 1
  33   19   21 2
  34   20   42 1
  35   22   26 ar
  36   22   30 ar
  37   23   24 ar
  38   23   43 1
  39   24   25 ar
  40   24   44 1
  41   25   26 ar
  42   25   31 1
  43   26   27 ar
  44   27   28 ar
  45   27   45 1
  46   28   29 ar
  47   28   46 1
  48   29   30 ar
  49   29   47 1
  50   30   48 1
  51   31   32 1
  52   31   49 1
  53   31   50 1
  54   32   51 1
  55   32   52 1
  56   32   53 1
  57   33   54 1
  58   33   55 1
  59   33   56 1

#	End of record

