#	Name: ASD03740165
#	Creating user name:	WinNT
#	Creation time:	15. 06. 2019 20:46

#	Modifying user name:	WinNT
#	Modification time:	15. 06. 2019 20:46

#	Program:	/corina/corina34_cracker 3.40 0067  02.08.2006

@<TRIPOS>MOLECULE
ASD03740165
  68   72    0    0    0
SMALL
NO_CHARGES


@<TRIPOS>ATOM
   1 C1             0.6048    -0.0266     0.7181 C.ar    
   2 C2             0.2809    -1.3683     0.5146 C.ar    
   3 C3            -1.0159    -1.7529     0.3300 C.ar    
   4 C4            -2.0345    -0.8033     0.3431 C.ar    
   5 C5            -1.7187     0.5533     0.5476 C.ar    
   6 C6            -0.3872     0.9343     0.7412 C.ar    
   7 N7            -3.3970    -0.8738     0.1913 N.pl3   
   8 N8            -3.9374     0.4118     0.2970 N.2     
   9 C9            -2.9868     1.2813     0.5066 C.2     
  10 O10           -3.1465     2.6226     0.6592 O.3     
  11 C11           -4.1629    -2.1002    -0.0444 C.3     
  12 C12           -4.5726    -2.6983     1.2768 C.ar    
  13 C13           -5.7735    -2.3349     1.8570 C.ar    
  14 C14           -6.1498    -2.8831     3.0687 C.ar    
  15 C15           -5.3242    -3.7958     3.7009 C.ar    
  16 C16           -4.1224    -4.1591     3.1197 C.ar    
  17 C17           -3.7499    -3.6144     1.9052 C.ar    
  18 C18           -4.4802     3.1300     0.5829 C.3     
  19 C19           -4.4605     4.6475     0.7767 C.3     
  20 C20           -5.8885     5.1908     0.6950 C.3     
  21 Cl21          -5.7958    -4.4844     5.2231 Cl      
  22 N22           -5.8695     6.6478     0.8811 N.3     
  23 C23           -7.1971     7.2317     0.6157 C.3     
  24 C24           -5.4669     7.0007     2.2592 C.3     
  25 C25           -6.2670     8.2857     2.5882 C.3     
  26 C26           -7.6201     8.0011     1.8848 C.3     
  27 C27           -8.2055     6.1194     0.3210 C.3     
  28 N28            1.9410     0.3468     0.9054 N.pl3   
  29 C29            2.6170     1.0485    -0.0956 C.ar    
  30 C30            2.6302     0.0018     2.1512 C.3     
  31 C31            3.9713     1.3264     0.0421 C.ar    
  32 C32            1.9380     1.4650    -1.2339 C.ar    
  33 C33            2.6094     2.1585    -2.2215 C.ar    
  34 C34            3.9562     2.4380    -2.0787 C.ar    
  35 C35            4.6364     2.0203    -0.9494 C.ar    
  36 H36            1.0650    -2.1110     0.5027 H       
  37 H37           -1.2523    -2.7950     0.1732 H       
  38 H38           -0.1356     1.9726     0.8991 H       
  39 H39           -5.0528    -1.8662    -0.6288 H       
  40 H40           -3.5467    -2.8140    -0.5909 H       
  41 H41           -6.4177    -1.6222     1.3636 H       
  42 H42           -7.0879    -2.5989     3.5221 H       
  43 H43           -3.4775    -4.8715     3.6127 H       
  44 H44           -2.8117    -3.8979     1.4514 H       
  45 H45           -4.9035     2.8939    -0.3935 H       
  46 H46           -5.0884     2.6720     1.3629 H       
  47 H47           -4.0373     4.8836     1.7531 H       
  48 H48           -3.8523     5.1056    -0.0033 H       
  49 H49           -6.3117     4.9547    -0.2814 H       
  50 H50           -6.4966     4.7327     1.4750 H       
  51 H51           -7.1393     7.9139    -0.2325 H       
  52 H52           -5.7339     6.2003     2.9492 H       
  53 H53           -4.3960     7.1989     2.3027 H       
  54 H54           -6.4020     8.3968     3.6641 H       
  55 H55           -5.7838     9.1659     2.1640 H       
  56 H56           -8.1211     8.9327     1.6216 H       
  57 H57           -8.2596     7.3831     2.5149 H       
  58 H58           -8.2144     5.4088     1.1475 H       
  59 H59           -9.1991     6.5517     0.2028 H       
  60 H60           -7.9213     5.6053    -0.5971 H       
  61 H61            3.1078    -0.9722     2.0445 H       
  62 H62            3.3870     0.7556     2.3686 H       
  63 H63            1.9088    -0.0347     2.9675 H       
  64 H64            4.5031     1.0005     0.9238 H       
  65 H65            0.8863     1.2464    -1.3464 H       
  66 H66            2.0821     2.4826    -3.1066 H       
  67 H67            4.4789     2.9802    -2.8528 H       
  68 H68            5.6882     2.2403    -0.8411 H       
@<TRIPOS>BOND
   1    1    2 ar
   2    1   28 1
   3    1    6 ar
   4    2    3 ar
   5    2   36 1
   6    3    4 ar
   7    3   37 1
   8    4    5 ar
   9    4    7 1
  10    5    6 ar
  11    5    9 1
  12    6   38 1
  13    7    8 1
  14    7   11 1
  15    8    9 2
  16    9   10 1
  17   10   18 1
  18   11   12 1
  19   11   39 1
  20   11   40 1
  21   12   13 ar
  22   12   17 ar
  23   13   14 ar
  24   13   41 1
  25   14   15 ar
  26   14   42 1
  27   15   16 ar
  28   15   21 1
  29   16   17 ar
  30   16   43 1
  31   17   44 1
  32   18   19 1
  33   18   45 1
  34   18   46 1
  35   19   20 1
  36   19   47 1
  37   19   48 1
  38   20   22 1
  39   20   49 1
  40   20   50 1
  41   22   23 1
  42   22   24 1
  43   23   27 1
  44   23   26 1
  45   23   51 1
  46   24   25 1
  47   24   52 1
  48   24   53 1
  49   25   26 1
  50   25   54 1
  51   25   55 1
  52   26   56 1
  53   26   57 1
  54   27   58 1
  55   27   59 1
  56   27   60 1
  57   28   30 1
  58   28   29 1
  59   29   31 ar
  60   29   32 ar
  61   30   61 1
  62   30   62 1
  63   30   63 1
  64   31   35 ar
  65   31   64 1
  66   32   33 ar
  67   32   65 1
  68   33   34 ar
  69   33   66 1
  70   34   35 ar
  71   34   67 1
  72   35   68 1

#	End of record

