#	Name: ASD00844695
#	Creating user name:	WinNT
#	Creation time:	15. 06. 2019 18:50

#	Modifying user name:	WinNT
#	Modification time:	15. 06. 2019 18:50

#	Program:	/corina/corina34_cracker 3.40 0067  02.08.2006

@<TRIPOS>MOLECULE
ASD00844695
  96  101    0    0    0
SMALL
NO_CHARGES


@<TRIPOS>ATOM
   1 C1             0.5720     1.3013    -0.7518 C.ar    
   2 C2             0.8812    -0.0389    -0.9317 C.ar    
   3 C3             0.8102    -0.9150     0.1419 C.ar    
   4 C4             0.4319    -0.4510     1.3867 C.ar    
   5 C5             0.1237     0.8855     1.5633 C.ar    
   6 C6             0.1942     1.7605     0.4954 C.ar    
   7 C7             1.1450    -2.3718    -0.0501 C.3     
   8 C8             0.8684    -3.1514     1.2177 C.2     
   9 C9             0.3507    -2.9533    -1.2214 C.3     
  10 C10           -1.1194    -2.7018    -1.0055 C.2     
  11 N11           -2.0196    -3.1598    -1.8979 N.am    
  12 O12           -1.4924    -2.0872    -0.0287 O.2     
  13 C13           -3.4431    -2.8204    -1.7667 C.3     
  14 C14           -4.2615    -4.1153    -1.7748 C.3     
  15 C15           -3.9207    -4.9216    -3.0301 C.3     
  16 C16           -2.4352    -5.2892    -3.0147 C.3     
  17 C17           -1.5952    -4.0029    -3.0238 C.3     
  18 N18           -4.7281    -6.1485    -3.0580 N.3     
  19 C19           -4.5150    -6.8910    -4.3081 C.3     
  20 C20           -5.3102    -8.1980    -4.2640 C.3     
  21 N21           -6.7352    -7.8951    -4.0712 N.3     
  22 C22           -6.9484    -7.1526    -2.8210 C.3     
  23 C23           -6.1532    -5.8456    -2.8652 C.3     
  24 C24           -7.5426    -9.1219    -4.0990 C.3     
  25 O25           -0.2066    -3.2791     1.7645 O.2     
  26 N26            2.0367    -3.6760     1.6233 N.am    
  27 C27            2.6298    -2.5494    -0.2727 C.ar    
  28 C28            3.0892    -3.3442     0.7748 C.ar    
  29 C29            3.4862    -2.0937    -1.2427 C.ar    
  30 C30            4.8438    -2.4284    -1.1856 C.ar    
  31 C31            5.3129    -3.2269    -0.1356 C.ar    
  32 C32            4.4420    -3.6797     0.8322 C.ar    
  33 F33            6.6217    -3.5556    -0.0715 F       
  34 C34            1.9572    -6.2862     2.4923 C.ar    
  35 C35            0.7170    -6.6949     2.0232 C.ar    
  36 C36            2.9993    -7.1904     2.5724 C.ar    
  37 C37            2.8092    -8.5029     2.1854 C.ar    
  38 C38            1.5705    -8.9167     1.7155 C.ar    
  39 C39            0.5236    -8.0117     1.6346 C.ar    
  40 O40            1.3840   -10.2080     1.3354 O.3     
  41 O41           -0.3074    -5.8053     1.9450 O.3     
  42 C42            2.5065   -11.0854     1.4460 C.3     
  43 C43           -1.5562    -6.2956     1.4528 C.3     
  44 C44           -2.5799    -5.1587     1.4372 C.3     
  45 C45            5.7460    -1.9582    -2.1934 C.1     
  46 N46            6.4617    -1.5852    -2.9928 N.1     
  47 O47            1.2527    -0.4931    -2.1575 O.3     
  48 C48            1.2170     0.4448    -3.2350 C.3     
  49 C49            1.7307    -0.2249    -4.5112 C.3     
  50 F50            3.0136    -0.7355    -4.2860 F       
  51 F51            0.8699    -1.2679    -4.8694 F       
  52 S52            2.2058    -4.6112     2.9794 S.o2    
  53 O53            3.5672    -4.5055     3.3725 O.2     
  54 O54            1.1216    -4.2770     3.8350 O.2     
  55 H55            0.6308     1.9861    -1.5848 H       
  56 H56            0.3765    -1.1325     2.2226 H       
  57 H57           -0.1725     1.2462     2.5372 H       
  58 H58           -0.0471     2.8038     0.6359 H       
  59 H59            0.6686    -2.4763    -2.1484 H       
  60 H60            0.5302    -4.0265    -1.2848 H       
  61 H61           -3.6074    -2.2901    -0.8287 H       
  62 H62           -3.7471    -2.1907    -2.6029 H       
  63 H63           -4.0215    -4.7029    -0.8887 H       
  64 H64           -5.3244    -3.8739    -1.7749 H       
  65 H65           -4.1377    -4.3241    -3.9156 H       
  66 H66           -2.2124    -5.8658    -2.1169 H       
  67 H67           -2.1982    -5.8833    -3.8973 H       
  68 H68           -1.7498    -3.4722    -3.9633 H       
  69 H69           -0.5404    -4.2545    -2.9131 H       
  70 H70           -4.8526    -6.2882    -5.1512 H       
  71 H71           -3.4542    -7.1144    -4.4220 H       
  72 H72           -5.1766    -8.7368    -5.2021 H       
  73 H73           -4.9540    -8.8127    -3.4373 H       
  74 H74           -8.0091    -6.9292    -2.7071 H       
  75 H75           -6.6108    -7.7553    -1.9780 H       
  76 H76           -6.2867    -5.3068    -1.9271 H       
  77 H77           -6.5094    -5.2309    -3.6919 H       
  78 H78           -7.2163    -9.7898    -3.3018 H       
  79 H79           -8.5929    -8.8690    -3.9540 H       
  80 H80           -7.4178    -9.6173    -5.0619 H       
  81 H81            3.1136    -1.4786    -2.0484 H       
  82 H82            4.8091    -4.2956     1.6399 H       
  83 H83            3.9639    -6.8704     2.9378 H       
  84 H84            3.6253    -9.2075     2.2483 H       
  85 H85           -0.4411    -8.3319     1.2696 H       
  86 H86            3.3217   -10.7124     0.8260 H       
  87 H87            2.8317   -11.1301     2.4855 H       
  88 H88            2.2224   -12.0830     1.1111 H       
  89 H89           -1.4228    -6.6784     0.4410 H       
  90 H90           -1.9126    -7.0967     2.1003 H       
  91 H91           -2.7133    -4.7759     2.4491 H       
  92 H92           -2.2235    -4.3576     0.7897 H       
  93 H93           -3.5325    -5.5326     1.0618 H       
  94 H94            0.1922     0.7824    -3.3891 H       
  95 H95            1.8488     1.2996    -2.9937 H       
  96 H96            1.7678     0.5085    -5.3167 H       
@<TRIPOS>BOND
   1    1    2 ar
   2    1    6 ar
   3    1   55 1
   4    2    3 ar
   5    2   47 1
   6    3    4 ar
   7    3    7 1
   8    4    5 ar
   9    4   56 1
  10    5    6 ar
  11    5   57 1
  12    6   58 1
  13    7    8 1
  14    7    9 1
  15    7   27 1
  16    8   25 2
  17    8   26 am
  18    9   10 1
  19    9   59 1
  20    9   60 1
  21   10   11 am
  22   10   12 2
  23   11   13 1
  24   11   17 1
  25   13   14 1
  26   13   61 1
  27   13   62 1
  28   14   15 1
  29   14   63 1
  30   14   64 1
  31   15   16 1
  32   15   18 1
  33   15   65 1
  34   16   17 1
  35   16   66 1
  36   16   67 1
  37   17   68 1
  38   17   69 1
  39   18   19 1
  40   18   23 1
  41   19   20 1
  42   19   70 1
  43   19   71 1
  44   20   21 1
  45   20   72 1
  46   20   73 1
  47   21   22 1
  48   21   24 1
  49   22   23 1
  50   22   74 1
  51   22   75 1
  52   23   76 1
  53   23   77 1
  54   24   78 1
  55   24   79 1
  56   24   80 1
  57   26   52 am
  58   26   28 1
  59   27   28 ar
  60   27   29 ar
  61   28   32 ar
  62   29   30 ar
  63   29   81 1
  64   30   31 ar
  65   30   45 1
  66   31   32 ar
  67   31   33 1
  68   32   82 1
  69   34   35 ar
  70   34   36 ar
  71   34   52 1
  72   35   41 1
  73   35   39 ar
  74   36   37 ar
  75   36   83 1
  76   37   38 ar
  77   37   84 1
  78   38   39 ar
  79   38   40 1
  80   39   85 1
  81   40   42 1
  82   41   43 1
  83   42   86 1
  84   42   87 1
  85   42   88 1
  86   43   44 1
  87   43   89 1
  88   43   90 1
  89   44   91 1
  90   44   92 1
  91   44   93 1
  92   45   46 3
  93   47   48 1
  94   48   49 1
  95   48   94 1
  96   48   95 1
  97   49   50 1
  98   49   51 1
  99   49   96 1
 100   52   53 2
 101   52   54 2

#	End of record

