#	Name: ASD00840001
#	Creating user name:	WinNT
#	Creation time:	15. 06. 2019 18:37

#	Modifying user name:	WinNT
#	Modification time:	15. 06. 2019 18:37

#	Program:	/corina/corina34_cracker 3.40 0067  02.08.2006

@<TRIPOS>MOLECULE
ASD00840001
  39   42    0    0    0
SMALL
NO_CHARGES


@<TRIPOS>ATOM
   1 C1            -0.0178     1.4642     0.0101 C.2     
   2 C2             0.0021    -0.0041     0.0020 C.2     
   3 C3             1.1177    -0.7018    -0.0119 C.2     
   4 C4             2.4110     0.0040    -0.0204 C.2     
   5 C5             3.5612    -0.6266    -0.0348 C.2     
   6 C6             4.8250     0.1405    -0.0425 C.2     
   7 C7             4.7966     1.4519    -0.0350 C.2     
   8 C8             6.0197     2.2734    -0.0418 C.2     
   9 C9             5.9158     3.5852    -0.0341 C.2     
  10 C10            4.6226     4.2806    -0.0183 C.2     
  11 C11            3.4831     3.6297    -0.0113 C.2     
  12 C12            2.1886     4.3316     0.0050 C.2     
  13 C13            1.0606     3.6470     0.0128 C.2     
  14 C14            1.0856     2.1746     0.0034 C.2     
  15 C15            2.3850     1.4788    -0.0127 C.2     
  16 C16            3.5004     2.1558    -0.0195 C.2     
  17 C17           -3.4869     3.6200    -2.8361 C.3     
  18 C18           -3.0903     3.2603    -1.4028 C.3     
  19 C19           -1.7422     2.5367    -1.4131 C.3     
  20 C20           -1.3456     2.1769     0.0202 C.3     
  21 O21           -4.7459     4.2959    -2.8265 O.3     
  22 H22           -0.9390    -0.5339     0.0081 H       
  23 H23            1.0857    -1.7813    -0.0168 H       
  24 H24            3.5849    -1.7063    -0.0406 H       
  25 H25            5.7718    -0.3790    -0.0539 H       
  26 H26            6.9921     1.8035    -0.0527 H       
  27 H27            6.8202     4.1754    -0.0393 H       
  28 H28            4.6088     5.3605    -0.0120 H       
  29 H29            2.1624     5.4113     0.0110 H       
  30 H30            0.1150     4.1686     0.0255 H       
  31 H31           -2.7283     4.2712    -3.2704 H       
  32 H32           -3.5676     2.7097    -3.4301 H       
  33 H33           -3.0095     4.1706    -0.8088 H       
  34 H34           -3.8489     2.6091    -0.9685 H       
  35 H35           -1.8230     1.6264    -2.0071 H       
  36 H36           -0.9836     3.1879    -1.8474 H       
  37 H37           -2.1042     1.5258     0.4545 H       
  38 H38           -1.2649     3.0873     0.6142 H       
  39 H39           -5.0602     4.5545    -3.7037 H       
@<TRIPOS>BOND
   1    1    2 1
   2    1   14 2
   3    1   20 1
   4    2    3 2
   5    2   22 1
   6    3    4 1
   7    3   23 1
   8    4    5 2
   9    4   15 1
  10    5    6 1
  11    5   24 1
  12    6    7 2
  13    6   25 1
  14    7    8 1
  15    7   16 1
  16    8    9 2
  17    8   26 1
  18    9   10 1
  19    9   27 1
  20   10   11 2
  21   10   28 1
  22   11   12 1
  23   11   16 1
  24   12   13 2
  25   12   29 1
  26   13   14 1
  27   13   30 1
  28   14   15 1
  29   15   16 2
  30   17   18 1
  31   17   21 1
  32   17   31 1
  33   17   32 1
  34   18   19 1
  35   18   33 1
  36   18   34 1
  37   19   20 1
  38   19   35 1
  39   19   36 1
  40   20   37 1
  41   20   38 1
  42   21   39 1

#	End of record

