#	Name: ASD02039369
#	Creating user name:	WinNT
#	Creation time:	15. 06. 2019 20:18

#	Modifying user name:	WinNT
#	Modification time:	15. 06. 2019 20:18

#	Program:	/corina/corina34_cracker 3.40 0067  02.08.2006

@<TRIPOS>MOLECULE
ASD02039369
  54   56    0    0    0
SMALL
NO_CHARGES


@<TRIPOS>ATOM
   1 C1            -0.1345     1.5598    -0.1873 C.ar    
   2 C2            -0.1558     0.1782    -0.0590 C.ar    
   3 C3            -1.3623    -0.4921    -0.1424 C.ar    
   4 C4            -2.5120     1.4848    -0.4580 C.ar    
   5 C5            -1.3321     2.2232    -0.3901 C.ar    
   6 C6            -3.8031     2.1803    -0.6747 C.ar    
   7 C7             1.1631     2.3214    -0.1016 C.3     
   8 N8             1.8165     2.3221    -1.4128 N.am    
   9 C9             1.4077     3.2893    -2.4344 C.3     
  10 C10            2.7936     1.4329    -1.6792 C.2     
  11 C11            3.1433     0.4030    -0.6856 C.2     
  12 C12            4.1488    -0.5128    -0.7931 C.2     
  13 N13            2.5275     0.1961     0.5064 N.2     
  14 C14            3.1089    -0.7979     1.1136 C.2     
  15 N15            4.1202    -1.2618     0.3342 N.pl3   
  16 O16            3.3867     1.4808    -2.7400 O.2     
  17 C17            5.0182    -2.3738     0.6557 C.3     
  18 C18           -3.8373     3.5669    -0.8099 C.ar    
  19 C19            2.5764     4.2262    -2.7463 C.3     
  20 C20            0.9974     2.5448    -3.7065 C.3     
  21 N21           -2.4879     0.1630    -0.3415 N.ar    
  22 C22           -4.9918     1.4475    -0.7500 C.ar    
  23 C23           -6.1943     2.1064    -0.9528 C.ar    
  24 C24           -6.2170     3.4818    -1.0803 C.ar    
  25 C25           -5.0415     4.2094    -1.0114 C.ar    
  26 O26           -4.9679     0.0954    -0.6254 O.3     
  27 C27           -6.2208    -0.5864    -0.7130 C.3     
  28 C28           -5.9951    -2.0909    -0.5507 C.3     
  29 H29            0.7613    -0.3683     0.1040 H       
  30 H30           -1.3821    -1.5674    -0.0433 H       
  31 H31           -1.3531     3.2989    -0.4847 H       
  32 H32            0.9622     3.3480     0.2048 H       
  33 H33            1.8163     1.8452     0.6296 H       
  34 H34            0.5633     3.8719    -2.0660 H       
  35 H35            4.8357    -0.6200    -1.6195 H       
  36 H36            2.8336    -1.1886     2.0821 H       
  37 H37            4.5913    -3.3049     0.2832 H       
  38 H38            5.9876    -2.2052     0.1865 H       
  39 H39            5.1440    -2.4384     1.7365 H       
  40 H40           -2.9222     4.1379    -0.7568 H       
  41 H41            3.4482     3.6372    -3.0313 H       
  42 H42            2.3017     4.8890    -3.5669 H       
  43 H43            2.8119     4.8199    -1.8630 H       
  44 H44            0.1126     1.9411    -3.5047 H       
  45 H45            0.7739     3.2654    -4.4932 H       
  46 H46            1.8134     1.8974    -4.0278 H       
  47 H47           -7.1144     1.5439    -1.0116 H       
  48 H48           -7.1559     3.9914    -1.2389 H       
  49 H49           -5.0675     5.2844    -1.1116 H       
  50 H50           -6.8836    -0.2312     0.0760 H       
  51 H51           -6.6743    -0.3897    -1.6845 H       
  52 H52           -6.9508    -2.6109    -0.6175 H       
  53 H53           -5.3323    -2.4461    -1.3397 H       
  54 H54           -5.5416    -2.2876     0.4208 H       
@<TRIPOS>BOND
   1    1    2 ar
   2    1    7 1
   3    1    5 ar
   4    2    3 ar
   5    2   29 1
   6    3   21 ar
   7    3   30 1
   8    4    5 ar
   9    4    6 1
  10    4   21 ar
  11    5   31 1
  12    6   18 ar
  13    6   22 ar
  14    7    8 1
  15    7   32 1
  16    7   33 1
  17    8    9 1
  18    8   10 am
  19    9   20 1
  20    9   19 1
  21    9   34 1
  22   10   11 1
  23   10   16 2
  24   11   12 2
  25   11   13 1
  26   12   15 1
  27   12   35 1
  28   13   14 2
  29   14   15 1
  30   14   36 1
  31   15   17 1
  32   17   37 1
  33   17   38 1
  34   17   39 1
  35   18   25 ar
  36   18   40 1
  37   19   41 1
  38   19   42 1
  39   19   43 1
  40   20   44 1
  41   20   45 1
  42   20   46 1
  43   22   23 ar
  44   22   26 1
  45   23   24 ar
  46   23   47 1
  47   24   25 ar
  48   24   48 1
  49   25   49 1
  50   26   27 1
  51   27   28 1
  52   27   50 1
  53   27   51 1
  54   28   52 1
  55   28   53 1
  56   28   54 1

#	End of record

