#	Name: ASD05740139
#	Creating user name:	WinNT
#	Creation time:	15. 06. 2019 21:02

#	Modifying user name:	WinNT
#	Modification time:	15. 06. 2019 21:02

#	Program:	/corina/corina34_cracker 3.40 0067  02.08.2006

@<TRIPOS>MOLECULE
ASD05740139
  54   55    0    0    0
SMALL
NO_CHARGES


@<TRIPOS>ATOM
   1 N1             0.0089     1.6378     0.0716 N.3     
   2 C2            -2.4623    -2.1248     1.2551 C.3     
   3 C3            -4.3405    -0.4335     1.2537 C.2     
   4 C4            -4.9030     0.7540     0.8098 C.2     
   5 C5            -3.0798    -0.8359     0.7769 C.2     
   6 C6            -2.4202    -0.0483    -0.1226 C.2     
   7 C7            -3.0147     1.1456    -0.5518 C.2     
   8 O8            -4.2160     1.5168    -0.0896 O.3     
   9 C9            -1.0683    -0.4582    -0.6473 C.3     
  10 C10            0.0263     0.1664     0.2204 C.3     
  11 C11            1.4098    -0.3188    -0.2506 C.3     
  12 O12           -2.4319     1.8550    -1.3548 O.2     
  13 C13            1.4281     2.0693     0.1471 C.3     
  14 C14            2.1767     0.9654    -0.6413 C.3     
  15 N15            1.6067     3.3742    -0.4944 N.am    
  16 S16            1.5956     4.7548     0.4200 S.o2    
  17 O17            1.7669     5.8023    -0.5249 O.2     
  18 O18            0.4082     4.6532     1.1938 O.2     
  19 C19           -6.1473     1.0087     1.3731 C.2     
  20 C20           -6.5963     0.0882     2.2357 C.2     
  21 S21           -5.4250    -1.2089     2.4037 S.3     
  22 O22           -7.7818     0.1514     2.8893 O.3     
  23 C23            3.0606     4.6077     1.4796 C.3     
  24 C24            3.1623     5.8383     2.3829 C.3     
  25 C25           -8.0932    -0.9267     3.7739 C.3     
  26 H26           -0.4047     1.9074    -0.8083 H       
  27 H27           -3.0914    -2.5638     2.0294 H       
  28 H28           -2.3771    -2.8190     0.4191 H       
  29 H29           -1.4715    -1.9237     1.6627 H       
  30 H30           -0.9806    -1.5442    -0.6167 H       
  31 H31           -0.9578    -0.1135    -1.6754 H       
  32 H32           -0.1292    -0.1031     1.2650 H       
  33 H33            1.9252    -0.8357     0.5590 H       
  34 H34            1.3065    -0.9754    -1.1145 H       
  35 H35            1.7687     2.1011     1.1820 H       
  36 H36            3.2180     0.9042    -0.3249 H       
  37 H37            2.1083     1.1441    -1.7144 H       
  38 H38            1.7313     3.4295    -1.4548 H       
  39 H39           -6.7166     1.8939     1.1306 H       
  40 H40            2.9757     3.7117     2.0945 H       
  41 H41            3.9532     4.5385     0.8579 H       
  42 H42            4.0426     5.7499     3.0197 H       
  43 H43            3.2472     6.7343     1.7681 H       
  44 H44            2.2697     5.9075     3.0046 H       
  45 H45           -7.3327    -0.9893     4.5523 H       
  46 H46           -9.0672    -0.7520     4.2309 H       
  47 H47           -8.1172    -1.8612     3.2134 H       
  48 C48            9.5698    14.4037    11.4205 C.3     
  49 N49            9.5897    12.9388    11.4125 N.2     
  50 C50           10.1304    12.3263    10.4665 C.1     
  51 O51           10.6529    11.7343     9.5523 O.2     
  52 H52           10.5924    14.7809    11.4128 H       
  53 H53            9.0426    14.7647    10.5375 H       
  54 H54            9.0596    14.7552    12.3173 H       
@<TRIPOS>BOND
   1    1   10 1
   2    1   13 1
   3    1   26 1
   4    2    5 1
   5    2   27 1
   6    2   28 1
   7    2   29 1
   8    3    4 2
   9    3    5 1
  10    3   21 1
  11    4   19 1
  12    4    8 1
  13    5    6 2
  14    6    7 1
  15    6    9 1
  16    7    8 1
  17    7   12 2
  18    9   10 1
  19    9   30 1
  20    9   31 1
  21   10   11 1
  22   10   32 1
  23   11   14 1
  24   11   33 1
  25   11   34 1
  26   13   14 1
  27   13   15 1
  28   13   35 1
  29   14   36 1
  30   14   37 1
  31   15   16 am
  32   15   38 1
  33   16   17 2
  34   16   18 2
  35   16   23 1
  36   19   20 2
  37   19   39 1
  38   20   21 1
  39   20   22 1
  40   22   25 1
  41   23   24 1
  42   23   40 1
  43   23   41 1
  44   24   42 1
  45   24   43 1
  46   24   44 1
  47   25   45 1
  48   25   46 1
  49   25   47 1
  50   48   49 1
  51   48   52 1
  52   48   53 1
  53   48   54 1
  54   49   50 2
  55   50   51 2

#	End of record

