#	Name: ASD01814284
#	Creating user name:	WinNT
#	Creation time:	15. 06. 2019 19:32

#	Modifying user name:	WinNT
#	Modification time:	15. 06. 2019 19:32

#	Program:	/corina/corina34_cracker 3.40 0067  02.08.2006

@<TRIPOS>MOLECULE
ASD01814284
  47   51    0    0    0
SMALL
NO_CHARGES


@<TRIPOS>ATOM
   1 C1            -0.0168     1.3869     0.0097 C.ar    
   2 C2             0.0021    -0.0041     0.0020 C.ar    
   3 C3             1.1801    -0.6897    -0.0125 C.ar    
   4 C4             2.3948     0.0129    -0.0204 C.ar    
   5 C5             2.3717     1.4289    -0.0130 C.ar    
   6 C6             1.1456     2.1014     0.0024 C.ar    
   7 C7             3.6294    -0.6695    -0.0358 C.ar    
   8 C8             4.8032     0.0060    -0.0439 C.ar    
   9 C9             4.8362     1.4094    -0.0372 C.ar    
  10 C10            3.6406     2.1511    -0.0213 C.ar    
  11 C11            6.1027     2.1517    -0.0464 C.2     
  12 N12            6.0337     3.5032    -0.0394 N.am    
  13 C13            4.8298     4.1315    -0.0244 C.2     
  14 N14            3.6958     3.4933    -0.0156 N.2     
  15 C15            3.6423    -2.1764    -0.0430 C.3     
  16 C16            3.5087    -2.6732    -1.4595 C.ar    
  17 C17            4.6399    -2.8899    -2.2244 C.ar    
  18 C18            4.5202    -3.3452    -3.5232 C.ar    
  19 C19            3.2635    -3.5851    -4.0597 C.ar    
  20 C20            2.1300    -3.3669    -3.2901 C.ar    
  21 C21            2.2554    -2.9169    -1.9901 C.ar    
  22 O22            7.1745     1.5734    -0.0594 O.2     
  23 C23            7.2138     4.2604    -0.0472 C.2     
  24 N24            7.2923     5.5667     0.0513 N.2     
  25 N25            8.6448     5.9278     0.0024 N.pl3   
  26 C26            9.3744     4.7997    -0.1281 C.2     
  27 C27            8.5186     3.7531    -0.1555 C.2     
  28 O28            3.1430    -4.0327    -5.3373 O.3     
  29 C29            1.8183    -4.2580    -5.8235 C.3     
  30 H30           -0.9630     1.9075     0.0170 H       
  31 H31           -0.9305    -0.5488     0.0080 H       
  32 H32            1.1786    -1.7697    -0.0176 H       
  33 H33            1.1189     3.1811     0.0085 H       
  34 H34            5.7316    -0.5455    -0.0554 H       
  35 H35            4.8128     5.2114    -0.0192 H       
  36 H36            4.5811    -2.5337     0.3803 H       
  37 H37            2.8096    -2.5498     0.5530 H       
  38 H38            5.6180    -2.7027    -1.8064 H       
  39 H39            5.4040    -3.5140    -4.1204 H       
  40 H40            1.1506    -3.5529    -3.7056 H       
  41 H41            1.3734    -2.7472    -1.3904 H       
  42 H42            8.9957     6.8307     0.0535 H       
  43 H43           10.4508     4.7427    -0.1942 H       
  44 H44            8.7901     2.7122    -0.2514 H       
  45 H45            1.3261    -5.0070    -5.2031 H       
  46 H46            1.2538    -3.3264    -5.7851 H       
  47 H47            1.8646    -4.6126    -6.8532 H       
@<TRIPOS>BOND
   1    1    2 ar
   2    1    6 ar
   3    1   30 1
   4    2    3 ar
   5    2   31 1
   6    3    4 ar
   7    3   32 1
   8    4    5 ar
   9    4    7 ar
  10    5    6 ar
  11    5   10 ar
  12    6   33 1
  13    7    8 ar
  14    7   15 1
  15    8    9 ar
  16    8   34 1
  17    9   10 ar
  18    9   11 1
  19   10   14 1
  20   11   12 am
  21   11   22 2
  22   12   13 1
  23   12   23 1
  24   13   14 2
  25   13   35 1
  26   15   16 1
  27   15   36 1
  28   15   37 1
  29   16   17 ar
  30   16   21 ar
  31   17   18 ar
  32   17   38 1
  33   18   19 ar
  34   18   39 1
  35   19   20 ar
  36   19   28 1
  37   20   21 ar
  38   20   40 1
  39   21   41 1
  40   23   24 2
  41   23   27 1
  42   24   25 1
  43   25   26 1
  44   25   42 1
  45   26   27 2
  46   26   43 1
  47   27   44 1
  48   28   29 1
  49   29   45 1
  50   29   46 1
  51   29   47 1

#	End of record

