#	Name: ASD01884948
#	Creating user name:	WinNT
#	Creation time:	15. 06. 2019 19:49

#	Modifying user name:	WinNT
#	Modification time:	15. 06. 2019 19:49

#	Program:	/corina/corina34_cracker 3.40 0067  02.08.2006

@<TRIPOS>MOLECULE
ASD01884948
  47   50    0    0    0
SMALL
NO_CHARGES


@<TRIPOS>ATOM
   1 C1             0.0201     1.4018     0.1564 C.ar    
   2 C2             0.0679     0.0225     0.1542 C.ar    
   3 C3            -1.1103    -0.7142     0.0255 C.ar    
   4 C4            -2.3322    -0.0536    -0.1005 C.ar    
   5 C5            -2.3734     1.3251    -0.0977 C.ar    
   6 C6            -1.2014     2.0563     0.0357 C.ar    
   7 C7            -1.0633    -2.1946     0.0222 C.2     
   8 C8            -1.6564    -2.9133     1.0435 C.2     
   9 C9            -0.4146    -2.8871    -1.0313 C.2     
  10 C10           -0.3721    -4.2311    -1.0347 C.2     
  11 N11           -0.9510    -4.9531    -0.0268 N.pl3   
  12 C12           -1.5954    -4.3188     1.0133 C.2     
  13 Cl13          -2.4638    -2.0941     2.3438 Cl      
  14 C14           -1.0625    -6.2874     0.2270 C.2     
  15 N15           -1.7276    -6.4193     1.3502 N.2     
  16 N16           -2.0458    -5.2645     1.8195 N.2     
  17 O17           -0.5754    -7.2946    -0.5413 O.3     
  18 O18           -1.2461     3.4145     0.0381 O.3     
  19 C19           -1.0517     4.0613    -1.1411 C.ar    
  20 F20            1.1596     2.1166     0.2813 F       
  21 C21           -0.8073    -8.6288    -0.0851 C.3     
  22 C22           -0.1898    -9.6202    -1.0734 C.3     
  23 C23           -0.7411     3.3478    -2.2944 C.ar    
  24 C24           -0.5524     4.0514    -3.4731 C.ar    
  25 C25           -0.6780     5.4279    -3.4650 C.ar    
  26 N26           -0.9735     6.0743    -2.3541 N.ar    
  27 C27           -1.1660     5.4425    -1.2134 C.ar    
  28 C28           -1.5016     6.2291     0.0274 C.3     
  29 C29           -0.4738     6.2005    -4.7426 C.3     
  30 H30            1.0157    -0.4860     0.2516 H       
  31 H31           -3.2455    -0.6213    -0.2007 H       
  32 H32           -3.3197     1.8364    -0.1957 H       
  33 H33            0.0471    -2.3326    -1.8349 H       
  34 H34            0.1247    -4.7470    -1.8431 H       
  35 H35           -0.3512    -8.7618     0.8959 H       
  36 H36           -1.8803    -8.8072    -0.0141 H       
  37 H37           -0.6459    -9.4872    -2.0544 H       
  38 H38            0.8832    -9.4419    -1.1443 H       
  39 H39           -0.3667   -10.6379    -0.7254 H       
  40 H40           -0.6489     2.2720    -2.2714 H       
  41 H41           -0.3098     3.5304    -4.3875 H       
  42 H42           -2.5835     6.3329     0.1102 H       
  43 H43           -1.1187     5.7061     0.9037 H       
  44 H44           -1.0454     7.2171    -0.0343 H       
  45 H45           -1.4256     6.2967    -5.2650 H       
  46 H46           -0.0854     7.1919    -4.5096 H       
  47 H47            0.2372     5.6716    -5.3774 H       
@<TRIPOS>BOND
   1    1    2 ar
   2    1   20 1
   3    1    6 ar
   4    2    3 ar
   5    2   30 1
   6    3    4 ar
   7    3    7 1
   8    4    5 ar
   9    4   31 1
  10    5    6 ar
  11    5   32 1
  12    6   18 1
  13    7    8 2
  14    7    9 1
  15    8   13 1
  16    8   12 1
  17    9   10 2
  18    9   33 1
  19   10   11 1
  20   10   34 1
  21   11   12 1
  22   11   14 1
  23   12   16 2
  24   14   15 2
  25   14   17 1
  26   15   16 1
  27   17   21 1
  28   18   19 1
  29   19   23 ar
  30   19   27 ar
  31   21   22 1
  32   21   35 1
  33   21   36 1
  34   22   37 1
  35   22   38 1
  36   22   39 1
  37   23   24 ar
  38   23   40 1
  39   24   25 ar
  40   24   41 1
  41   25   26 ar
  42   25   29 1
  43   26   27 ar
  44   27   28 1
  45   28   42 1
  46   28   43 1
  47   28   44 1
  48   29   45 1
  49   29   46 1
  50   29   47 1

#	End of record

