#	Name: ASD01230077
#	Creating user name:	WinNT
#	Creation time:	15. 06. 2019 19:11

#	Modifying user name:	WinNT
#	Modification time:	15. 06. 2019 19:11

#	Program:	/corina/corina34_cracker 3.40 0067  02.08.2006

@<TRIPOS>MOLECULE
ASD01230077
  46   49    0    0    0
SMALL
NO_CHARGES


@<TRIPOS>ATOM
   1 C1            -0.0169     1.3939     0.0097 C.ar    
   2 C2             0.0021    -0.0041     0.0020 C.ar    
   3 C3            -1.2649    -0.7750     0.0095 C.ar    
   4 N4            -2.4376    -0.1469     0.0236 N.ar    
   5 C5            -3.5703    -0.8334     0.0304 C.ar    
   6 N6            -3.5813    -2.1597     0.0234 N.ar    
   7 C7            -2.4530    -2.8496     0.0093 C.ar    
   8 C8            -1.2452    -2.1727    -0.0040 C.ar    
   9 C9            -4.8597    -0.1001     0.0466 C.ar    
  10 C10           -6.0613    -0.8026     0.0539 C.ar    
  11 C11           -4.8702     1.2939     0.0604 C.ar    
  12 C12           -6.0700     1.9779     0.0765 C.ar    
  13 C13           -7.2651     1.2863     0.0790 C.ar    
  14 C14           -7.2668    -0.1081     0.0696 C.ar    
  15 C15           -8.5519    -0.8499     0.0718 C.ar    
  16 C16           -9.7694    -0.1595     0.0832 C.ar    
  17 C17          -10.9396    -0.8921     0.0848 C.ar    
  18 C18          -10.8711    -2.2827     0.0751 C.ar    
  19 N19           -9.7020    -2.9050     0.0645 N.ar    
  20 C20           -8.5631    -2.2413     0.0567 C.ar    
  21 C21            1.2306    -0.6612    -0.0132 C.ar    
  22 N22            2.3566     0.0225    -0.0203 N.ar    
  23 C23            2.3703     1.3414    -0.0134 C.ar    
  24 C24            1.1926     2.0667     0.0018 C.ar    
  25 N25          -12.0440    -3.0271     0.0772 N.pl3   
  26 C26            3.6897     2.0695    -0.0216 C.3     
  27 F27            4.7317     1.1451    -0.1510 F       
  28 F28            3.7226     2.9630    -1.0976 F       
  29 F29            3.8396     2.7765     1.1763 F       
  30 C30           -2.4817    -4.3564     0.0015 C.3     
  31 F31           -3.8053    -4.7970    -0.1037 F       
  32 F32           -1.7441    -4.8312    -1.0883 F       
  33 F33           -1.9223    -4.8396     1.1893 F       
  34 H34           -0.9515     1.9350     0.0171 H       
  35 H35           -0.3096    -2.7120    -0.0156 H       
  36 H36           -6.0579    -1.8825     0.0470 H       
  37 H37           -3.9384     1.8400     0.0589 H       
  38 H38           -6.0735     3.0578     0.0876 H       
  39 H39           -8.2003     1.8263     0.0923 H       
  40 H40           -9.7929     0.9202     0.0909 H       
  41 H41          -11.8970    -0.3923     0.0939 H       
  42 H42           -7.6289    -2.7832     0.0481 H       
  43 H43            1.2600    -1.7408    -0.0190 H       
  44 H44            1.2165     3.1465     0.0077 H       
  45 H45          -12.9036    -2.5777     0.0853 H       
  46 H46          -12.0034    -3.9962     0.0704 H       
@<TRIPOS>BOND
   1    1    2 ar
   2    1   24 ar
   3    1   34 1
   4    2    3 1
   5    2   21 ar
   6    3    4 ar
   7    3    8 ar
   8    4    5 ar
   9    5    6 ar
  10    5    9 1
  11    6    7 ar
  12    7   30 1
  13    7    8 ar
  14    8   35 1
  15    9   10 ar
  16    9   11 ar
  17   10   14 ar
  18   10   36 1
  19   11   12 ar
  20   11   37 1
  21   12   13 ar
  22   12   38 1
  23   13   14 ar
  24   13   39 1
  25   14   15 1
  26   15   16 ar
  27   15   20 ar
  28   16   17 ar
  29   16   40 1
  30   17   18 ar
  31   17   41 1
  32   18   19 ar
  33   18   25 1
  34   19   20 ar
  35   20   42 1
  36   21   22 ar
  37   21   43 1
  38   22   23 ar
  39   23   26 1
  40   23   24 ar
  41   24   44 1
  42   25   45 1
  43   25   46 1
  44   26   27 1
  45   26   28 1
  46   26   29 1
  47   30   31 1
  48   30   32 1
  49   30   33 1

#	End of record

