#	Name: ASD07930721
#	Creating user name:	WinNT
#	Creation time:	15. 06. 2019 21:13

#	Modifying user name:	WinNT
#	Modification time:	15. 06. 2019 21:13

#	Program:	/corina/corina34_cracker 3.40 0067  02.08.2006

@<TRIPOS>MOLECULE
ASD07930721
  43   45    0    0    0
SMALL
NO_CHARGES


@<TRIPOS>ATOM
   1 C1             1.5052    -1.2193     2.9475 C.3     
   2 N2            -0.7106    -3.1422     2.3972 N.2     
   3 N3             0.3863    -3.4555     0.3576 N.pl3   
   4 C4             0.2855    -2.8052    -0.9532 C.3     
   5 C5             1.2688    -1.6280    -1.0110 C.3     
   6 N6             0.8463    -1.5437     1.6799 N.am    
   7 C7             0.1460    -2.7290     1.5058 C.2     
   8 C8            -1.1404    -2.2905    -1.1598 C.3     
   9 C9             0.6249    -3.7980    -2.0349 C.ar    
  10 C10            1.7023    -3.5694    -2.8656 C.ar    
  11 C11            2.0161    -4.4873    -3.8658 C.ar    
  12 C12            1.2378    -5.6349    -4.0225 C.ar    
  13 C13            0.1602    -5.8550    -3.1851 C.ar    
  14 C14           -0.1428    -4.9415    -2.1894 C.ar    
  15 F15           -1.1968    -5.1603    -1.3731 F       
  16 C16            3.1737    -4.2451    -4.7617 C.ar    
  17 C17            3.3172    -3.0133    -5.4000 C.ar    
  18 C18            4.1204    -5.2441    -4.9618 C.ar    
  19 C19            5.2058    -5.0091    -5.8053 C.ar    
  20 C20            5.3349    -3.7732    -6.4431 C.ar    
  21 C21            4.3937    -2.7849    -6.2346 C.ar    
  22 F22            1.5365    -6.5286    -4.9906 F       
  23 C23            6.1855    -6.0319    -6.0167 C.1     
  24 N24            6.9627    -6.8433    -6.1843 N.1     
  25 S25            0.9008    -0.5077     0.3760 S.o2    
  26 O26            2.0060     0.3448     0.6426 O.2     
  27 O27           -0.4199     0.0063     0.2724 O.2     
  28 H28            1.3442    -2.0296     3.6585 H       
  29 H29            2.5744    -1.0909     2.7789 H       
  30 H30            1.0872    -0.2959     3.3484 H       
  31 H31           -0.8673    -2.6185     3.1985 H       
  32 H32            0.6176    -4.3956     0.4170 H       
  33 H33            2.2904    -1.9979    -0.9235 H       
  34 H34            1.1497    -1.0958    -1.9548 H       
  35 H35           -1.3839    -1.5710    -0.3780 H       
  36 H36           -1.2147    -1.8073    -2.1341 H       
  37 H37           -1.8386    -3.1263    -1.1146 H       
  38 H38            2.3017    -2.6797    -2.7409 H       
  39 H39           -0.4434    -6.7426    -3.3047 H       
  40 H40            2.5843    -2.2361    -5.2415 H       
  41 H41            4.0157    -6.1977    -4.4657 H       
  42 H42            6.1745    -3.5889    -7.0969 H       
  43 H43            4.4972    -1.8307    -6.7297 H       
@<TRIPOS>BOND
   1    1    6 1
   2    1   28 1
   3    1   29 1
   4    1   30 1
   5    2    7 2
   6    2   31 1
   7    3    4 1
   8    3    7 1
   9    3   32 1
  10    4    5 1
  11    4    8 1
  12    4    9 1
  13    5   25 1
  14    5   33 1
  15    5   34 1
  16    6    7 1
  17    6   25 am
  18    8   35 1
  19    8   36 1
  20    8   37 1
  21    9   10 ar
  22    9   14 ar
  23   10   11 ar
  24   10   38 1
  25   11   12 ar
  26   11   16 1
  27   12   13 ar
  28   12   22 1
  29   13   14 ar
  30   13   39 1
  31   14   15 1
  32   16   17 ar
  33   16   18 ar
  34   17   21 ar
  35   17   40 1
  36   18   19 ar
  37   18   41 1
  38   19   20 ar
  39   19   23 1
  40   20   21 ar
  41   20   42 1
  42   21   43 1
  43   23   24 3
  44   25   26 2
  45   25   27 2

#	End of record

