#	Name: ASD04590105
#	Creating user name:	WinNT
#	Creation time:	15. 06. 2019 20:50

#	Modifying user name:	WinNT
#	Modification time:	15. 06. 2019 20:50

#	Program:	/corina/corina34_cracker 3.40 0067  02.08.2006

@<TRIPOS>MOLECULE
ASD04590105
  37   39    0    0    0
SMALL
NO_CHARGES


@<TRIPOS>ATOM
   1 N1            -0.0169     1.2801    -0.0128 N.pl3   
   2 N2             0.0010    -0.0043    -0.0132 N.2     
   3 C3             1.2444    -0.4435    -0.0246 C.2     
   4 C4             2.0884     0.6971    -0.0321 C.2     
   5 C5             1.2500     1.7669    -0.0244 C.2     
   6 C6             1.6763    -1.8541    -0.0280 C.2     
   7 O7             2.8612    -2.1272    -0.0384 O.2     
   8 N8             0.7575    -2.8401    -0.0194 N.am    
   9 C9             1.1624    -4.1749    -0.1354 C.ar    
  10 C10            0.4741    -5.1718     0.5434 C.ar    
  11 C11            0.8749    -6.4883     0.4272 C.ar    
  12 C12            1.9627    -6.8145    -0.3652 C.ar    
  13 C13            2.6508    -5.8219    -1.0426 C.ar    
  14 C14            2.2495    -4.5049    -0.9341 C.ar    
  15 F15            2.3535    -8.1029    -0.4772 F       
  16 N16            3.4935     0.7165    -0.0441 N.pl3   
  17 C17            4.2985     0.7279     1.0582 C.2     
  18 C18            5.5818     0.7448     0.6427 C.2     
  19 C19            5.5698     0.7438    -0.7663 C.2     
  20 C20            4.2797     0.7212    -1.1599 C.2     
  21 C21            3.7909     0.7068    -2.5853 C.3     
  22 C22            3.8339     0.7230     2.4917 C.3     
  23 H23           -0.8202     1.8237    -0.0091 H       
  24 H24            1.5376     2.8078    -0.0274 H       
  25 H25           -0.1843    -2.6248     0.0671 H       
  26 H26           -0.3739    -4.9177     1.1621 H       
  27 H27            0.3399    -7.2639     0.9550 H       
  28 H28            3.4993    -6.0784    -1.6595 H       
  29 H29            2.7834    -3.7316    -1.4664 H       
  30 H30            6.4578     0.7569     1.2743 H       
  31 H31            6.4350     0.7549    -1.4127 H       
  32 H32            3.6590     1.7309    -2.9346 H       
  33 H33            4.5218     0.1994    -3.2149 H       
  34 H34            2.8383     0.1796    -2.6374 H       
  35 H35            3.7352    -0.3057     2.8382 H       
  36 H36            4.5617     1.2469     3.1114 H       
  37 H37            2.8686     1.2244     2.5625 H       
@<TRIPOS>BOND
   1    1    2 1
   2    1    5 1
   3    1   23 1
   4    2    3 2
   5    3    4 1
   6    3    6 1
   7    4    5 2
   8    4   16 1
   9    5   24 1
  10    6    7 2
  11    6    8 am
  12    8    9 1
  13    8   25 1
  14    9   10 ar
  15    9   14 ar
  16   10   11 ar
  17   10   26 1
  18   11   12 ar
  19   11   27 1
  20   12   13 ar
  21   12   15 1
  22   13   14 ar
  23   13   28 1
  24   14   29 1
  25   16   17 1
  26   16   20 1
  27   17   18 2
  28   17   22 1
  29   18   19 1
  30   18   30 1
  31   19   20 2
  32   19   31 1
  33   20   21 1
  34   21   32 1
  35   21   33 1
  36   21   34 1
  37   22   35 1
  38   22   36 1
  39   22   37 1

#	End of record

