#	Name: ASD01913282
#	Creating user name:	WinNT
#	Creation time:	15. 06. 2019 20:01

#	Modifying user name:	WinNT
#	Modification time:	15. 06. 2019 20:01

#	Program:	/corina/corina34_cracker 3.40 0067  02.08.2006

@<TRIPOS>MOLECULE
ASD01913282
  48   51    0    0    0
SMALL
NO_CHARGES


@<TRIPOS>ATOM
   1 C1            -0.0895     1.4762    -0.2765 C.3     
   2 N2            -0.0403     0.0111    -0.2448 N.am    
   3 C3             1.3431    -0.3748    -0.5406 C.3     
   4 C4             2.1363     0.8897    -0.7534 C.ar    
   5 C5             3.4726     1.0880    -1.0561 C.ar    
   6 C6             3.9669     2.3696    -1.2031 C.ar    
   7 C7             3.1260     3.4560    -1.0481 C.ar    
   8 C8             1.7924     3.2588    -0.7464 C.ar    
   9 C9             1.2965     1.9747    -0.5986 C.ar    
  10 C10           -1.0694    -0.8216     0.0083 C.2     
  11 C11           -0.8849    -2.2814    -0.1129 C.ar    
  12 C12           -1.9821    -3.1344    -0.0019 C.ar    
  13 C13           -1.8017    -4.5109    -0.1176 C.ar    
  14 C14           -0.5159    -5.0288    -0.3450 C.ar    
  15 C15            0.5686    -4.1704    -0.4532 C.ar    
  16 C16            0.3896    -2.8083    -0.3446 C.ar    
  17 O17           -2.1498    -0.3706     0.3362 O.2     
  18 C18           -2.9228    -5.3947    -0.0045 C.1     
  19 C19           -3.8420    -6.1192     0.0882 C.1     
  20 C20           -4.9631    -7.0029     0.2012 C.ar    
  21 C21           -4.7736    -8.3827     0.0840 C.ar    
  22 C22           -5.8666    -9.2221     0.1956 C.ar    
  23 C23           -7.1159    -8.6587     0.4209 C.ar    
  24 C24           -7.2328    -7.2850     0.5268 C.ar    
  25 N25           -6.1762    -6.5054     0.4224 N.ar    
  26 C26           -8.5874    -6.6716     0.7713 C.3     
  27 O27           -0.3346    -6.3679    -0.4584 O.3     
  28 C28            0.9996    -6.8247    -0.6892 C.3     
  29 H29           -0.7886     1.8058    -1.0451 H       
  30 H30           -0.4022     1.8565     0.6960 H       
  31 H31            1.7579    -0.9344     0.2978 H       
  32 H32            1.3715    -0.9850    -1.4433 H       
  33 H33            4.1297     0.2395    -1.1773 H       
  34 H34            5.0098     2.5228    -1.4386 H       
  35 H35            3.5116     4.4584    -1.1624 H       
  36 H36            1.1358     4.1076    -0.6250 H       
  37 H37           -2.9679    -2.7296     0.1733 H       
  38 H38            1.5563    -4.5709    -0.6277 H       
  39 H39            1.2376    -2.1454    -0.4346 H       
  40 H40           -3.7878    -8.7874    -0.0916 H       
  41 H41           -5.7515   -10.2925     0.1091 H       
  42 H42           -7.9887    -9.2882     0.5123 H       
  43 H43           -8.7605    -6.5887     1.8442 H       
  44 H44           -8.6242    -5.6802     0.3197 H       
  45 H45           -9.3574    -7.3021     0.3267 H       
  46 H46            1.3735    -6.3987    -1.6202 H       
  47 H47            1.6388    -6.5115     0.1362 H       
  48 H48            1.0042    -7.9124    -0.7598 H       
@<TRIPOS>BOND
   1    1    2 1
   2    1    9 1
   3    1   29 1
   4    1   30 1
   5    2    3 1
   6    2   10 am
   7    3    4 1
   8    3   31 1
   9    3   32 1
  10    4    5 ar
  11    4    9 ar
  12    5    6 ar
  13    5   33 1
  14    6    7 ar
  15    6   34 1
  16    7    8 ar
  17    7   35 1
  18    8    9 ar
  19    8   36 1
  20   10   11 1
  21   10   17 2
  22   11   12 ar
  23   11   16 ar
  24   12   13 ar
  25   12   37 1
  26   13   14 ar
  27   13   18 1
  28   14   15 ar
  29   14   27 1
  30   15   16 ar
  31   15   38 1
  32   16   39 1
  33   18   19 3
  34   19   20 1
  35   20   21 ar
  36   20   25 ar
  37   21   22 ar
  38   21   40 1
  39   22   23 ar
  40   22   41 1
  41   23   24 ar
  42   23   42 1
  43   24   25 ar
  44   24   26 1
  45   26   43 1
  46   26   44 1
  47   26   45 1
  48   27   28 1
  49   28   46 1
  50   28   47 1
  51   28   48 1

#	End of record

