#	Name: ASD09490006
#	Creating user name:	WinNT
#	Creation time:	15. 06. 2019 21:22

#	Modifying user name:	WinNT
#	Modification time:	15. 06. 2019 21:22

#	Program:	/corina/corina34_cracker 3.40 0067  02.08.2006

@<TRIPOS>MOLECULE
ASD09490006
  32   34    0    0    0
SMALL
NO_CHARGES


@<TRIPOS>ATOM
   1 C1             0.0127     1.3568     0.0323 C.ar    
   2 C2            -0.9963     1.6268     0.9789 C.ar    
   3 C3            -2.1834     0.9184     0.9834 C.ar    
   4 C4            -2.3853    -0.0755     0.0399 C.ar    
   5 C5            -1.3930    -0.3511    -0.9021 C.ar    
   6 C6            -0.2239     0.3444    -0.9172 C.ar    
   7 N7             1.0583     2.1686     0.2314 N.2     
   8 N8             1.0304     3.0227     1.1729 N.2     
   9 S9            -0.3235     2.9341     1.9556 S.3     
  10 N10           -3.5809    -0.8016     0.0314 N.am    
  11 C11           -4.7601    -0.1594     0.1479 C.2     
  12 N12           -5.9147    -0.8483     0.0536 N.am    
  13 S13           -4.7914     1.5312     0.4156 S.2     
  14 C14           -7.1965    -0.1503     0.1802 C.3     
  15 C15           -8.3238    -1.1402     0.0379 C.ar    
  16 C16           -8.8258    -1.7812     1.1551 C.ar    
  17 C17           -9.8598    -2.6894     1.0246 C.ar    
  18 C18          -10.3921    -2.9562    -0.2230 C.ar    
  19 C19           -9.8906    -2.3145    -1.3400 C.ar    
  20 C20           -8.8595    -1.4032    -1.2090 C.ar    
  21 H21           -2.9461     1.1376     1.7159 H       
  22 H22           -1.5578    -1.1275    -1.6345 H       
  23 H23            0.5295     0.1134    -1.6557 H       
  24 H24           -3.5613    -1.7672    -0.0582 H       
  25 H25           -5.8970    -1.8062    -0.0981 H       
  26 H26           -7.2546     0.3285     1.1577 H       
  27 H27           -7.2768     0.6064    -0.6003 H       
  28 H28           -8.4100    -1.5728     2.1298 H       
  29 H29          -10.2516    -3.1907     1.8973 H       
  30 H30          -11.1994    -3.6662    -0.3250 H       
  31 H31          -10.3062    -2.5232    -2.3147 H       
  32 H32           -8.4678    -0.9018    -2.0817 H       
@<TRIPOS>BOND
   1    1    2 ar
   2    1    7 1
   3    1    6 ar
   4    2    3 ar
   5    2    9 1
   6    3    4 ar
   7    3   21 1
   8    4    5 ar
   9    4   10 1
  10    5    6 ar
  11    5   22 1
  12    6   23 1
  13    7    8 2
  14    8    9 1
  15   10   11 am
  16   10   24 1
  17   11   12 am
  18   11   13 2
  19   12   14 1
  20   12   25 1
  21   14   15 1
  22   14   26 1
  23   14   27 1
  24   15   16 ar
  25   15   20 ar
  26   16   17 ar
  27   16   28 1
  28   17   18 ar
  29   17   29 1
  30   18   19 ar
  31   18   30 1
  32   19   20 ar
  33   19   31 1
  34   20   32 1

#	End of record

