#	Name: ASD00731013
#	Creating user name:	WinNT
#	Creation time:	15. 06. 2019 18:37

#	Modifying user name:	WinNT
#	Modification time:	15. 06. 2019 18:37

#	Program:	/corina/corina34_cracker 3.40 0067  02.08.2006

@<TRIPOS>MOLECULE
ASD00731013
 209  209    0    0    0
SMALL
NO_CHARGES


@<TRIPOS>ATOM
   1 C1            -5.4876     5.8297     6.9050 C.2     
   2 O2            -4.7907     4.8486     6.7547 O.2     
   3 N3            -3.7377     6.6410     8.3778 N.am    
   4 C4            -4.9597     7.0198     7.6640 C.3     
   5 C5            -4.6474     8.1523     6.6837 C.3     
   6 C6            -4.1346     9.3690     7.4567 C.3     
   7 O7            -3.6478     7.7195     5.7588 O.3     
   8 C8            -8.2950     5.2248     4.6433 C.2     
   9 O9            -8.6331     6.3894     4.6616 O.2     
  10 N10           -6.7321     5.8578     6.3885 N.am    
  11 C11           -7.2118     4.7400     5.5721 C.3     
  12 C12           -7.7730     3.6467     6.4835 C.3     
  13 C13           -6.6619     3.0765     7.3269 C.ar    
  14 C14           -6.3748     3.6343     8.5590 C.ar    
  15 C15           -5.3564     3.1137     9.3338 C.ar    
  16 C16           -4.6219     2.0299     8.8749 C.ar    
  17 O17           -3.6200     1.5157     9.6355 O.3     
  18 C18           -4.9123     1.4717     7.6385 C.ar    
  19 C19           -5.9351     1.9927     6.8698 C.ar    
  20 C20          -10.8359     3.6818     2.5158 C.2     
  21 O21          -10.6156     2.5749     2.9599 O.2     
  22 N22           -8.8881     4.3642     3.7924 N.am    
  23 C23           -9.9412     4.8355     2.8895 C.3     
  24 C24           -9.3061     5.4186     1.6256 C.3     
  25 O25           -8.6306     4.3822     0.9103 O.3     
  26 C26          -13.4090     3.0425    -0.0008 C.2     
  27 O27          -13.3080     4.1408    -0.5052 O.2     
  28 N28          -11.8808     3.8801     1.6880 N.am    
  29 C29          -12.7506     2.7586     1.3247 C.3     
  30 C30          -13.8246     2.5772     2.3992 C.3     
  31 C31          -13.1556     2.3850     3.7616 C.3     
  32 O32          -14.6601     3.7359     2.4379 O.3     
  33 C33          -16.2537     1.8360    -1.7376 C.2     
  34 O34          -16.5950     1.2442    -0.7355 O.2     
  35 N35          -14.1101     2.0758    -0.6258 N.am    
  36 C36          -14.8549     2.3854    -1.8488 C.3     
  37 C37          -14.1510     1.7494    -3.0492 C.3     
  38 C38          -12.7586     2.3125    -3.1714 C.2     
  39 O39          -12.3683     3.1363    -2.3783 O.2     
  40 O40          -11.9518     1.8990    -4.1612 O.3     
  41 C41          -19.0396     1.2222    -4.0235 C.2     
  42 O42          -18.3650     1.4687    -5.0008 O.2     
  43 N43          -17.1256     2.0023    -2.7519 N.am    
  44 C44          -18.4855     1.4682    -2.6439 C.3     
  45 C45          -19.3725     2.4762    -1.9103 C.3     
  46 C46          -18.8832     2.6320    -0.4690 C.3     
  47 C47          -19.7702     3.6400     0.2645 C.3     
  48 N48          -19.3016     3.7892     1.6446 N.pl3   
  49 C49          -19.9485     4.6483     2.5011 C.2     
  50 N50          -19.5317     4.7810     3.7289 N.2     
  51 N51          -21.0351     5.3673     2.0625 N.pl3   
  52 C52          -22.3289     0.5420    -5.4661 C.2     
  53 O53          -22.8959     0.7582    -4.4161 O.2     
  54 N54          -20.2849     0.7283    -4.1714 N.am    
  55 C55          -20.8235     0.4891    -5.5126 C.3     
  56 C56          -20.3766    -0.8894    -6.0034 C.3     
  57 C57          -18.8557    -0.9031    -6.1697 C.3     
  58 C58          -18.3959    -2.3147    -6.5397 C.3     
  59 C59          -18.4552     0.0710    -7.2794 C.3     
  60 C60          -25.0749    -0.4104    -7.6832 C.2     
  61 O61          -24.3296    -0.9757    -8.4551 O.2     
  62 N62          -23.0450     0.3491    -6.5915 N.am    
  63 C63          -24.5084     0.4005    -6.5463 C.3     
  64 C64          -24.9719     1.8529    -6.6753 C.3     
  65 C65          -24.5011     2.6487    -5.4564 C.3     
  66 C66          -24.9646     4.1011    -5.5854 C.3     
  67 N67          -24.5138     4.8631    -4.4182 N.pl3   
  68 C68          -24.8143     6.2005    -4.3124 C.2     
  69 N69          -25.5004     6.7905    -5.2506 N.2     
  70 N70          -24.3913     6.9156    -3.2171 N.pl3   
  71 C71          -27.0197    -0.4457   -10.1901 C.2     
  72 O72          -26.6408     0.7011   -10.1562 O.2     
  73 N73          -26.4098    -0.5075    -7.8420 N.am    
  74 C74          -26.9605    -1.2959    -8.9472 C.3     
  75 C75          -28.3700    -1.7677    -8.5844 C.3     
  76 C76          -28.2958    -2.7307    -7.3978 C.3     
  77 C77          -29.7053    -3.2025    -7.0350 C.3     
  78 C78          -29.6311    -4.1656    -5.8485 C.3     
  79 N79          -30.9844    -4.6185    -5.5001 N.3     
  80 O80          -27.4934    -0.9624   -11.3348 O.3     
  81 C81           -3.3640     7.3190     9.4810 C.2     
  82 O82           -4.0394     8.2428     9.8829 O.2     
  83 C83            8.1742    10.6097    23.8765 C.3     
  84 C84            6.8980    11.0053    23.1310 C.3     
  85 C85            6.7054    10.0839    21.9249 C.3     
  86 C86            5.4293    10.4796    21.1794 C.3     
  87 C87            5.2367     9.5581    19.9733 C.3     
  88 C88            3.9605     9.9538    19.2278 C.3     
  89 C89            3.7679     9.0324    18.0217 C.3     
  90 C90            2.4918     9.4280    17.2762 C.3     
  91 C91            2.2992     8.5066    16.0701 C.3     
  92 C92            1.0230     8.9023    15.3246 C.3     
  93 C93            0.8305     7.9808    14.1185 C.3     
  94 C94           -0.4457     8.3765    13.3730 C.3     
  95 C95           -0.6383     7.4551    12.1669 C.3     
  96 C96           -1.9145     7.8507    11.4214 C.3     
  97 C97           -2.1070     6.9293    10.2153 C.3     
  98 H98           -3.1976     5.9021     8.0564 H       
  99 H99           -5.7096     7.3557     8.3803 H       
 100 H100          -5.5528     8.4223     6.1402 H       
 101 H101          -3.1695     9.1339     7.9056 H       
 102 H102          -4.0224    10.2118     6.7747 H       
 103 H103          -4.8464     9.6280     8.2405 H       
 104 H104          -3.9053     6.9499     5.2330 H       
 105 H105          -7.3102     6.6182     6.5573 H       
 106 H106          -6.3853     4.3365     4.9870 H       
 107 H107          -8.5394     4.0719     7.1315 H       
 108 H108          -8.2100     2.8551     5.8748 H       
 109 H109          -6.9469     4.4780     8.9158 H       
 110 H110          -5.1321     3.5502    10.2959 H       
 111 H111          -3.9040     0.8155    10.2390 H       
 112 H112          -4.3417     0.6282     7.2789 H       
 113 H113          -6.1644     1.5558     5.9091 H       
 114 H114          -8.6177     3.4327     3.7778 H       
 115 H115         -10.5300     5.6051     3.3885 H       
 116 H116         -10.0831     5.8492     0.9940 H       
 117 H117          -8.5918     6.1940     1.9025 H       
 118 H118          -8.2034     4.6806     0.0957 H       
 119 H119         -12.0570     4.7654     1.3328 H       
 120 H120         -12.1564     1.8481     1.2476 H       
 121 H121         -14.4291     1.7011     2.1644 H       
 122 H122         -12.6454     3.3044     4.0488 H       
 123 H123         -13.9127     2.1416     4.5071 H       
 124 H124         -12.4321     1.5721     3.6997 H       
 125 H125         -15.1171     3.9193     1.6057 H       
 126 H126         -14.1215     1.1752    -0.2657 H       
 127 H127         -14.8986     3.4661    -1.9838 H       
 128 H128         -14.0954     0.6700    -2.9078 H       
 129 H129         -14.7125     1.9684    -3.9575 H       
 130 H130         -11.0676     2.2887    -4.1988 H       
 131 H131         -16.8527     2.4756    -3.5534 H       
 132 H132         -18.4646     0.5307    -2.0882 H       
 133 H133         -19.3230     3.4400    -2.4170 H       
 134 H134         -20.4025     2.1195    -1.9077 H       
 135 H135         -18.9326     1.6682     0.0377 H       
 136 H136         -17.8532     2.9887    -0.4716 H       
 137 H137         -19.7207     4.6038    -0.2421 H       
 138 H138         -20.8001     3.2832     0.2671 H       
 139 H139         -18.5350     3.2818     1.9540 H       
 140 H140         -19.9881     5.3871     4.3332 H       
 141 H141         -21.3454     5.2686     1.1488 H       
 142 H142         -21.4916     5.9735     2.6668 H       
 143 H143         -20.8244     0.5311    -3.3898 H       
 144 H144         -20.4539     1.2550    -6.1945 H       
 145 H145         -20.6694    -1.6466    -5.2760 H       
 146 H146         -20.8488    -1.1045    -6.9619 H       
 147 H147         -18.3852    -0.6013    -5.2339 H       
 148 H148         -18.8664    -2.6165    -7.4754 H       
 149 H149         -17.3124    -2.3245    -6.6582 H       
 150 H150         -18.6812    -3.0087    -5.7491 H       
 151 H151         -18.7828     1.0767    -7.0157 H       
 152 H152         -17.3717     0.0612    -7.3978 H       
 153 H153         -18.9257    -0.2308    -8.2151 H       
 154 H154         -22.5915     0.1762    -7.4313 H       
 155 H155         -24.8573    -0.0093    -5.5985 H       
 156 H156         -24.5494     2.2901    -7.5800 H       
 157 H157         -26.0601     1.8835    -6.7310 H       
 158 H158         -24.9236     2.2115    -4.5517 H       
 159 H159         -23.4130     2.6182    -5.4007 H       
 160 H160         -24.5421     4.5383    -6.4901 H       
 161 H161         -26.0527     4.1317    -5.6411 H       
 162 H162         -24.0032     4.4241    -3.7200 H       
 163 H163         -25.7125     7.7341    -5.1760 H       
 164 H164         -23.8807     6.4765    -2.5189 H       
 165 H165         -24.6033     7.8592    -3.1424 H       
 166 H166         -27.0058    -0.0554    -7.2246 H       
 167 H167         -26.3232    -2.1613    -9.1291 H       
 168 H168         -28.9833    -0.9074    -8.3163 H       
 169 H169         -28.8136    -2.2779    -9.4393 H       
 170 H170         -27.6824    -3.5910    -7.6659 H       
 171 H171         -27.8521    -2.2205    -6.5429 H       
 172 H172         -30.3186    -2.3422    -6.7669 H       
 173 H173         -30.1489    -3.7128    -7.8899 H       
 174 H174         -29.0177    -5.0258    -6.1165 H       
 175 H175         -29.1874    -3.6553    -4.9935 H       
 176 H176         -30.9622    -5.2562    -4.7185 H       
 177 H177         -31.5904    -3.8345    -5.3100 H       
 178 H178         -27.5119    -0.3786   -12.1054 H       
 179 H179           8.3114    11.2661    24.7358 H       
 180 H180           8.0908     9.5777    24.2173 H       
 181 H181           9.0296    10.7034    23.2075 H       
 182 H182           6.0426    10.9117    23.8000 H       
 183 H183           6.9814    12.0373    22.7902 H       
 184 H184           7.5609    10.1776    21.2559 H       
 185 H185           6.6220     9.0519    22.2657 H       
 186 H186           4.5738    10.3859    21.8484 H       
 187 H187           5.5127    11.5116    20.8386 H       
 188 H188           6.0921     9.6518    19.3043 H       
 189 H189           5.1533     8.5262    20.3141 H       
 190 H190           3.1051     9.8601    19.8968 H       
 191 H191           4.0439    10.9858    18.8870 H       
 192 H192           4.6234     9.1260    17.3527 H       
 193 H193           3.6845     8.0004    18.3625 H       
 194 H194           1.6363     9.3344    17.9452 H       
 195 H195           2.5752    10.4600    16.9354 H       
 196 H196           3.1546     8.6003    15.4011 H       
 197 H197           2.2158     7.4746    16.4109 H       
 198 H198           0.1676     8.8086    15.9936 H       
 199 H199           1.1064     9.9342    14.9838 H       
 200 H200           1.6859     8.0745    13.4495 H       
 201 H201           0.7470     6.9488    14.4593 H       
 202 H202          -1.3012     8.2828    14.0420 H       
 203 H203          -0.3623     9.4085    13.0322 H       
 204 H204           0.2171     7.5487    11.4979 H       
 205 H205          -0.7217     6.4231    12.5077 H       
 206 H206          -2.7699     7.7570    12.0904 H       
 207 H207          -1.8311     8.8827    11.0806 H       
 208 H208          -2.1905     5.8973    10.5561 H       
 209 H209          -1.2516     7.0229     9.5463 H       
@<TRIPOS>BOND
   1    1    2 2
   2    1    4 1
   3    1   10 am
   4    3   81 am
   5    3    4 1
   6    3   98 1
   7    4    5 1
   8    4   99 1
   9    5    6 1
  10    5    7 1
  11    5  100 1
  12    6  101 1
  13    6  102 1
  14    6  103 1
  15    7  104 1
  16    8    9 2
  17    8   11 1
  18    8   22 am
  19   10   11 1
  20   10  105 1
  21   11   12 1
  22   11  106 1
  23   12   13 1
  24   12  107 1
  25   12  108 1
  26   13   14 ar
  27   13   19 ar
  28   14   15 ar
  29   14  109 1
  30   15   16 ar
  31   15  110 1
  32   16   17 1
  33   16   18 ar
  34   17  111 1
  35   18   19 ar
  36   18  112 1
  37   19  113 1
  38   20   21 2
  39   20   23 1
  40   20   28 am
  41   22   23 1
  42   22  114 1
  43   23   24 1
  44   23  115 1
  45   24   25 1
  46   24  116 1
  47   24  117 1
  48   25  118 1
  49   26   27 2
  50   26   29 1
  51   26   35 am
  52   28   29 1
  53   28  119 1
  54   29   30 1
  55   29  120 1
  56   30   31 1
  57   30   32 1
  58   30  121 1
  59   31  122 1
  60   31  123 1
  61   31  124 1
  62   32  125 1
  63   33   34 2
  64   33   36 1
  65   33   43 am
  66   35   36 1
  67   35  126 1
  68   36   37 1
  69   36  127 1
  70   37   38 1
  71   37  128 1
  72   37  129 1
  73   38   39 2
  74   38   40 1
  75   40  130 1
  76   41   42 2
  77   41   44 1
  78   41   54 am
  79   43   44 1
  80   43  131 1
  81   44   45 1
  82   44  132 1
  83   45   46 1
  84   45  133 1
  85   45  134 1
  86   46   47 1
  87   46  135 1
  88   46  136 1
  89   47   48 1
  90   47  137 1
  91   47  138 1
  92   48   49 1
  93   48  139 1
  94   49   50 2
  95   49   51 1
  96   50  140 1
  97   51  141 1
  98   51  142 1
  99   52   53 2
 100   52   55 1
 101   52   62 am
 102   54   55 1
 103   54  143 1
 104   55   56 1
 105   55  144 1
 106   56   57 1
 107   56  145 1
 108   56  146 1
 109   57   58 1
 110   57   59 1
 111   57  147 1
 112   58  148 1
 113   58  149 1
 114   58  150 1
 115   59  151 1
 116   59  152 1
 117   59  153 1
 118   60   61 2
 119   60   63 1
 120   60   73 am
 121   62   63 1
 122   62  154 1
 123   63   64 1
 124   63  155 1
 125   64   65 1
 126   64  156 1
 127   64  157 1
 128   65   66 1
 129   65  158 1
 130   65  159 1
 131   66   67 1
 132   66  160 1
 133   66  161 1
 134   67   68 1
 135   67  162 1
 136   68   69 2
 137   68   70 1
 138   69  163 1
 139   70  164 1
 140   70  165 1
 141   71   72 2
 142   71   74 1
 143   71   80 1
 144   73   74 1
 145   73  166 1
 146   74   75 1
 147   74  167 1
 148   75   76 1
 149   75  168 1
 150   75  169 1
 151   76   77 1
 152   76  170 1
 153   76  171 1
 154   77   78 1
 155   77  172 1
 156   77  173 1
 157   78   79 1
 158   78  174 1
 159   78  175 1
 160   79  176 1
 161   79  177 1
 162   80  178 1
 163   81   82 2
 164   81   97 1
 165   83   84 1
 166   83  179 1
 167   83  180 1
 168   83  181 1
 169   84   85 1
 170   84  182 1
 171   84  183 1
 172   85   86 1
 173   85  184 1
 174   85  185 1
 175   86   87 1
 176   86  186 1
 177   86  187 1
 178   87   88 1
 179   87  188 1
 180   87  189 1
 181   88   89 1
 182   88  190 1
 183   88  191 1
 184   89   90 1
 185   89  192 1
 186   89  193 1
 187   90   91 1
 188   90  194 1
 189   90  195 1
 190   91   92 1
 191   91  196 1
 192   91  197 1
 193   92   93 1
 194   92  198 1
 195   92  199 1
 196   93   94 1
 197   93  200 1
 198   93  201 1
 199   94   95 1
 200   94  202 1
 201   94  203 1
 202   95   96 1
 203   95  204 1
 204   95  205 1
 205   96   97 1
 206   96  206 1
 207   96  207 1
 208   97  208 1
 209   97  209 1

#	End of record

