#	Name: ASD01900953
#	Creating user name:	WinNT
#	Creation time:	15. 06. 2019 19:52

#	Modifying user name:	WinNT
#	Modification time:	15. 06. 2019 19:52

#	Program:	/corina/corina34_cracker 3.40 0067  02.08.2006

@<TRIPOS>MOLECULE
ASD01900953
  61   65    0    0    0
SMALL
NO_CHARGES


@<TRIPOS>ATOM
   1 C1             0.1695     0.8471    -0.4090 C.ar    
   2 C2             0.3461    -0.5205    -0.4404 C.ar    
   3 C3             1.6193    -1.0638    -0.5122 C.ar    
   4 C4             2.7313    -0.2446    -0.5477 C.ar    
   5 C5             2.5717     1.1305    -0.5147 C.ar    
   6 C6             1.2811     1.6851    -0.4515 C.ar    
   7 N7             3.6607     1.9945    -0.5326 N.pl3   
   8 C8             3.4908     3.3349    -1.1044 C.3     
   9 N9             2.2274     3.9214    -0.6557 N.am    
  10 C10            1.1458     3.1519    -0.4213 C.2     
  11 C11            4.6528     4.2271    -0.6576 C.3     
  12 C12            3.4934     3.2375    -2.6327 C.3     
  13 C13            3.3831     4.6433    -3.2276 C.3     
  14 N14            4.5138     5.4607    -2.7693 N.3     
  15 C15            4.5085     5.6049    -1.3081 C.3     
  16 C16            2.1407     5.3062    -0.4655 C.ar    
  17 C17            1.4957     6.0976    -1.4067 C.ar    
  18 C18            1.4106     7.4629    -1.2186 C.ar    
  19 C19            1.9694     8.0440    -0.0897 C.ar    
  20 C20            2.6140     7.2541     0.8511 C.ar    
  21 C21            2.6948     5.8879     0.6671 C.ar    
  22 C22            4.5152     6.7738    -3.4279 C.3     
  23 C23            5.6344     7.6145    -2.8697 C.ar    
  24 O24            0.0677     3.6637    -0.1870 O.2     
  25 O25            1.8857     9.3886     0.0947 O.3     
  26 C26            2.4831     9.9194     1.2793 C.3     
  27 C27            1.7921    -2.5604    -0.5513 C.3     
  28 C28            6.9176     7.4725    -3.3644 C.ar    
  29 C29            7.9458     8.2422    -2.8537 C.ar    
  30 C30            7.6913     9.1565    -1.8463 C.ar    
  31 C31            6.4043     9.2992    -1.3505 C.ar    
  32 C32            5.3759     8.5307    -1.8677 C.ar    
  33 F33            8.6959     9.9089    -1.3463 F       
  34 F34            6.1536    10.1908    -0.3669 F       
  35 H35           -0.8247     1.2656    -0.3564 H       
  36 H36           -0.5140    -1.1729    -0.4085 H       
  37 H37            3.7206    -0.6748    -0.6007 H       
  38 H38            4.5176     1.7162    -0.1731 H       
  39 H39            4.6345     4.3328     0.4271 H       
  40 H40            5.5967     3.7766    -0.9645 H       
  41 H41            4.4212     2.7728    -2.9663 H       
  42 H42            2.6456     2.6360    -2.9606 H       
  43 H43            3.3986     4.5794    -4.3156 H       
  44 H44            2.4487     5.1022    -2.9043 H       
  45 H45            3.5698     6.0595    -0.9914 H       
  46 H46            5.3404     6.2396    -1.0028 H       
  47 H47            1.0609     5.6454    -2.2859 H       
  48 H48            0.9093     8.0786    -1.9507 H       
  49 H49            3.0488     7.7072     1.7297 H       
  50 H50            3.1928     5.2725     1.4018 H       
  51 H51            4.6596     6.6422    -4.5003 H       
  52 H52            3.5623     7.2715    -3.2480 H       
  53 H53            2.3451    11.0004     1.3028 H       
  54 H54            2.0115     9.4738     2.1552 H       
  55 H55            3.5485     9.6890     1.2836 H       
  56 H56            1.7849    -2.9000    -1.5871 H       
  57 H57            2.7413    -2.8288    -0.0875 H       
  58 H58            0.9751    -3.0348    -0.0078 H       
  59 H59            7.1168     6.7592    -4.1505 H       
  60 H60            8.9479     8.1298    -3.2405 H       
  61 H61            4.3723     8.6438    -1.4851 H       
@<TRIPOS>BOND
   1    1    2 ar
   2    1    6 ar
   3    1   35 1
   4    2    3 ar
   5    2   36 1
   6    3    4 ar
   7    3   27 1
   8    4    5 ar
   9    4   37 1
  10    5    7 1
  11    5    6 ar
  12    6   10 1
  13    7    8 1
  14    7   38 1
  15    8    9 1
  16    8   12 1
  17    8   11 1
  18    9   10 am
  19    9   16 1
  20   10   24 2
  21   11   15 1
  22   11   39 1
  23   11   40 1
  24   12   13 1
  25   12   41 1
  26   12   42 1
  27   13   14 1
  28   13   43 1
  29   13   44 1
  30   14   15 1
  31   14   22 1
  32   15   45 1
  33   15   46 1
  34   16   17 ar
  35   16   21 ar
  36   17   18 ar
  37   17   47 1
  38   18   19 ar
  39   18   48 1
  40   19   20 ar
  41   19   25 1
  42   20   21 ar
  43   20   49 1
  44   21   50 1
  45   22   23 1
  46   22   51 1
  47   22   52 1
  48   23   28 ar
  49   23   32 ar
  50   25   26 1
  51   26   53 1
  52   26   54 1
  53   26   55 1
  54   27   56 1
  55   27   57 1
  56   27   58 1
  57   28   29 ar
  58   28   59 1
  59   29   30 ar
  60   29   60 1
  61   30   31 ar
  62   30   33 1
  63   31   32 ar
  64   31   34 1
  65   32   61 1

#	End of record

