#	Name: ASD01883614
#	Creating user name:	WinNT
#	Creation time:	15. 06. 2019 19:46

#	Modifying user name:	WinNT
#	Modification time:	15. 06. 2019 19:46

#	Program:	/corina/corina34_cracker 3.40 0067  02.08.2006

@<TRIPOS>MOLECULE
ASD01883614
  54   58    0    0    0
SMALL
NO_CHARGES


@<TRIPOS>ATOM
   1 C1            -0.0253     1.3856    -0.1681 C.2     
   2 C2             0.0021    -0.0041     0.0020 C.2     
   3 C3            -1.2103    -0.6937     0.1891 C.2     
   4 C4            -2.3863    -0.0386     0.2059 C.2     
   5 N5            -2.4608     1.3139     0.0438 N.pl3   
   6 C6            -1.3255     2.0606    -0.1372 C.2     
   7 C7            -3.5191     2.1887     0.0226 C.2     
   8 C8            -3.0112     3.4222    -0.1734 C.2     
   9 N9            -1.6795     3.3261    -0.2671 N.2     
  10 C10           -4.9750     1.8361     0.1869 C.3     
  11 N11            1.2030    -0.6889    -0.0141 N.pl3   
  12 C12            1.4833    -1.6841    -1.0580 C.3     
  13 C13            1.8826    -3.0025    -0.3878 C.3     
  14 C14            3.0494    -2.7505     0.5699 C.3     
  15 C15            2.6143    -1.7674     1.6591 C.3     
  16 C16            2.2256    -0.4309     1.0089 C.3     
  17 C17            3.4672    -4.0514     1.2055 C.ar    
  18 C18            4.7545    -4.5238     1.0312 C.ar    
  19 C19            5.1377    -5.7172     1.6143 C.ar    
  20 C20            4.2337    -6.4379     2.3720 C.ar    
  21 C21            2.9466    -5.9651     2.5470 C.ar    
  22 C22            2.5647    -4.7695     1.9676 C.ar    
  23 C23           -5.6064     1.6638    -1.1706 C.ar    
  24 C24           -5.6126     0.4218    -1.7774 C.ar    
  25 C25           -6.1917     0.2638    -3.0226 C.ar    
  26 C26           -6.7652     1.3478    -3.6607 C.ar    
  27 C27           -6.7598     2.5896    -3.0535 C.ar    
  28 C28           -6.1845     2.7466    -1.8064 C.ar    
  29 C29            1.1844     2.1273    -0.3609 C.1     
  30 N30            2.1441     2.7156    -0.5138 N.1     
  31 H31           -1.1971    -1.7656     0.3209 H       
  32 H32           -3.2973    -0.6002     0.3515 H       
  33 H33           -3.5833     4.3358    -0.2402 H       
  34 H34           -5.0624     0.9062     0.7489 H       
  35 H35           -5.4839     2.6354     0.7255 H       
  36 H36            0.5912    -1.8382    -1.6649 H       
  37 H37            2.3003    -1.3324    -1.6881 H       
  38 H38            1.0338    -3.3991     0.1693 H       
  39 H39            2.1859    -3.7206    -1.1497 H       
  40 H40            3.8894    -2.3308     0.0164 H       
  41 H41            1.7586    -2.1756     2.1969 H       
  42 H42            3.4384    -1.6064     2.3541 H       
  43 H43            3.1044     0.0209     0.5489 H       
  44 H44            1.8215     0.2403     1.7667 H       
  45 H45            5.4609    -3.9607     0.4393 H       
  46 H46            6.1433    -6.0866     1.4775 H       
  47 H47            4.5329    -7.3706     2.8269 H       
  48 H48            2.2401    -6.5283     3.1387 H       
  49 H49            1.5591    -4.4001     2.1043 H       
  50 H50           -5.1646    -0.4250    -1.2789 H       
  51 H51           -6.1959    -0.7064    -3.4971 H       
  52 H52           -7.2170     1.2245    -4.6339 H       
  53 H53           -7.2075     3.4365    -3.5522 H       
  54 H54           -6.1803     3.7168    -1.3319 H       
@<TRIPOS>BOND
   1    1    2 2
   2    1   29 1
   3    1    6 1
   4    2    3 1
   5    2   11 1
   6    3    4 2
   7    3   31 1
   8    4    5 1
   9    4   32 1
  10    5    6 1
  11    5    7 1
  12    6    9 2
  13    7    8 2
  14    7   10 1
  15    8    9 1
  16    8   33 1
  17   10   23 1
  18   10   34 1
  19   10   35 1
  20   11   12 1
  21   11   16 1
  22   12   13 1
  23   12   36 1
  24   12   37 1
  25   13   14 1
  26   13   38 1
  27   13   39 1
  28   14   15 1
  29   14   17 1
  30   14   40 1
  31   15   16 1
  32   15   41 1
  33   15   42 1
  34   16   43 1
  35   16   44 1
  36   17   18 ar
  37   17   22 ar
  38   18   19 ar
  39   18   45 1
  40   19   20 ar
  41   19   46 1
  42   20   21 ar
  43   20   47 1
  44   21   22 ar
  45   21   48 1
  46   22   49 1
  47   23   24 ar
  48   23   28 ar
  49   24   25 ar
  50   24   50 1
  51   25   26 ar
  52   25   51 1
  53   26   27 ar
  54   26   52 1
  55   27   28 ar
  56   27   53 1
  57   28   54 1
  58   29   30 3

#	End of record

