#	Name: ASD00311154
#	Creating user name:	WinNT
#	Creation time:	15. 06. 2019 18:34

#	Modifying user name:	WinNT
#	Modification time:	15. 06. 2019 18:34

#	Program:	/corina/corina34_cracker 3.40 0067  02.08.2006

@<TRIPOS>MOLECULE
ASD00311154
  35   38    0    0    0
SMALL
NO_CHARGES


@<TRIPOS>ATOM
   1 C1            -0.0167     1.3771     0.0096 C.2     
   2 C2             0.0021    -0.0041     0.0020 C.2     
   3 C3             1.2585    -0.6769    -0.0131 C.2     
   4 C4             2.4316     0.0668    -0.0199 C.2     
   5 C5             2.3575     1.4746    -0.0117 C.2     
   6 N6             1.1649     2.0896     0.0022 N.am    
   7 C7            -1.3437    -0.5759     0.0118 C.2     
   8 C8            -2.3241     0.3275     0.0260 C.2     
   9 S9            -1.6788     1.9568     0.0358 S.3     
  10 O10            3.3824     2.1368    -0.0175 O.2     
  11 C11           -2.4251    -4.0227     1.0500 C.ar    
  12 C12           -2.2085    -2.6622     1.0972 C.ar    
  13 C13           -1.5962    -2.0342     0.0064 C.ar    
  14 C14           -1.2296    -2.8235    -1.0899 C.ar    
  15 C15           -1.4838    -4.1778    -1.0532 C.ar    
  16 N16           -2.0637    -4.7304    -0.0040 N.ar    
  17 C17            3.7476    -0.6127    -0.0352 C.ar    
  18 C18            4.5937    -0.4755    -1.1354 C.ar    
  19 C19            5.8187    -1.1105    -1.1435 C.ar    
  20 C20            6.2079    -1.8826    -0.0635 C.ar    
  21 C21            5.3728    -2.0229     1.0305 C.ar    
  22 C22            4.1480    -1.3877     1.0531 C.ar    
  23 O23            1.3080    -2.0294    -0.0204 O.3     
  24 Cl24          -4.0165    -0.0592     0.0400 Cl      
  25 H25            1.1326     3.0590     0.0073 H       
  26 H26           -2.8928    -4.5171     1.8886 H       
  27 H27           -2.5070    -2.0893     1.9627 H       
  28 H28           -0.7551    -2.3780    -1.9518 H       
  29 H29           -1.2050    -4.7951    -1.8944 H       
  30 H30            4.2907     0.1264    -1.9794 H       
  31 H31            6.4748    -1.0050    -1.9948 H       
  32 H32            7.1675    -2.3780    -0.0746 H       
  33 H33            5.6818    -2.6275     1.8704 H       
  34 H34            3.4988    -1.4944     1.9095 H       
  35 H35            2.2052    -2.3901    -0.0306 H       
@<TRIPOS>BOND
   1    1    2 2
   2    1    6 1
   3    1    9 1
   4    2    3 1
   5    2    7 1
   6    3    4 2
   7    3   23 1
   8    4    5 1
   9    4   17 1
  10    5    6 am
  11    5   10 2
  12    6   25 1
  13    7    8 2
  14    7   13 1
  15    8    9 1
  16    8   24 1
  17   11   12 ar
  18   11   16 ar
  19   11   26 1
  20   12   13 ar
  21   12   27 1
  22   13   14 ar
  23   14   15 ar
  24   14   28 1
  25   15   16 ar
  26   15   29 1
  27   17   18 ar
  28   17   22 ar
  29   18   19 ar
  30   18   30 1
  31   19   20 ar
  32   19   31 1
  33   20   21 ar
  34   20   32 1
  35   21   22 ar
  36   21   33 1
  37   22   34 1
  38   23   35 1

#	End of record

