#	Name: ASD03330470
#	Creating user name:	WinNT
#	Creation time:	15. 06. 2019 20:37

#	Modifying user name:	WinNT
#	Modification time:	15. 06. 2019 20:37

#	Program:	/corina/corina34_cracker 3.40 0067  02.08.2006

@<TRIPOS>MOLECULE
ASD03330470
  57   59    0    0    0
SMALL
NO_CHARGES


@<TRIPOS>ATOM
   1 C1            -0.6047     0.9476     0.4492 C.3     
   2 N2            -0.6782    -0.5093     0.2714 N.3     
   3 C3            -0.0891    -0.9196    -1.0161 C.3     
   4 C4             1.2683    -0.2758    -1.1325 C.2     
   5 N5             1.6830     0.7611    -0.3481 N.pl3   
   6 C6             0.8501     1.3694     0.6931 C.3     
   7 C7             2.2866    -0.5706    -1.9779 C.2     
   8 N8             3.3058     0.2765    -1.7050 N.2     
   9 C9             2.9490     1.0781    -0.7262 C.2     
  10 C10            3.7851     2.1456    -0.1356 C.ar    
  11 C11            2.2840    -1.6242    -3.0081 C.2     
  12 O12            1.3019    -2.3257    -3.1579 O.2     
  13 C13            3.3675    -2.8580    -4.8084 C.3     
  14 N14            3.3700    -1.8105    -3.7842 N.am    
  15 C15           -2.0627    -0.9852     0.3924 C.3     
  16 C16            4.4712     3.0382    -0.9629 C.ar    
  17 C17            2.7266    -2.3181    -6.0885 C.3     
  18 C18            3.4817    -1.0699    -6.5496 C.3     
  19 C19            2.7920    -3.3867    -7.1815 C.3     
  20 C20            1.2651    -1.9578    -5.8144 C.3     
  21 C21            4.7845    -3.2824    -5.0964 C.2     
  22 O22            5.7087    -2.5617    -4.7844 O.2     
  23 N23            5.0248    -4.4629    -5.7007 N.am    
  24 C24            6.4031    -4.9219    -5.8896 C.3     
  25 C25            5.2508     4.0334    -0.4031 C.ar    
  26 C26            5.3513     4.1452     0.9713 C.ar    
  27 C27            4.6736     3.2636     1.7952 C.ar    
  28 C28            3.8877     2.2695     1.2504 C.ar    
  29 F29            4.3736     2.9289    -2.3059 F       
  30 H30           -0.9796     1.4414    -0.4473 H       
  31 H31           -1.2146     1.2395     1.3042 H       
  32 H32            0.0138    -2.0044    -1.0453 H       
  33 H33           -0.7262    -0.5871    -1.8356 H       
  34 H34            0.9318     2.4551     0.6419 H       
  35 H35            1.1746     1.0213     1.6737 H       
  36 H36            2.7972    -3.7151    -4.4501 H       
  37 H37            4.1534    -1.2510    -3.6646 H       
  38 H38           -2.6924    -0.4569    -0.3235 H       
  39 H39           -2.0983    -2.0552     0.1873 H       
  40 H40           -2.4247    -0.7967     1.4031 H       
  41 H41            4.5229    -1.3266    -6.7449 H       
  42 H42            3.0252    -0.6853    -7.4616 H       
  43 H43            3.4351    -0.3086    -5.7710 H       
  44 H44            2.2504    -4.2744    -6.8547 H       
  45 H45            2.3393    -3.0005    -8.0947 H       
  46 H46            3.8330    -3.6466    -7.3737 H       
  47 H47            1.2185    -1.1965    -5.0357 H       
  48 H48            0.8085    -1.5732    -6.7263 H       
  49 H49            0.7271    -2.8470    -5.4858 H       
  50 H50            4.2851    -5.0086    -6.0106 H       
  51 H51            6.3983    -5.8892    -6.3920 H       
  52 H52            6.9466    -4.1992    -6.4981 H       
  53 H53            6.8900    -5.0190    -4.9192 H       
  54 H54            5.7825     4.7244    -1.0405 H       
  55 H55            5.9618     4.9240     1.4040 H       
  56 H56            4.7568     3.3570     2.8680 H       
  57 H57            3.3595     1.5829     1.8954 H       
@<TRIPOS>BOND
   1    1    2 1
   2    1    6 1
   3    1   30 1
   4    1   31 1
   5    2    3 1
   6    2   15 1
   7    3    4 1
   8    3   32 1
   9    3   33 1
  10    4    5 1
  11    4    7 2
  12    5    6 1
  13    5    9 1
  14    6   34 1
  15    6   35 1
  16    7    8 1
  17    7   11 1
  18    8    9 2
  19    9   10 1
  20   10   16 ar
  21   10   28 ar
  22   11   12 2
  23   11   14 am
  24   13   14 1
  25   13   17 1
  26   13   21 1
  27   13   36 1
  28   14   37 1
  29   15   38 1
  30   15   39 1
  31   15   40 1
  32   16   25 ar
  33   16   29 1
  34   17   18 1
  35   17   19 1
  36   17   20 1
  37   18   41 1
  38   18   42 1
  39   18   43 1
  40   19   44 1
  41   19   45 1
  42   19   46 1
  43   20   47 1
  44   20   48 1
  45   20   49 1
  46   21   22 2
  47   21   23 am
  48   23   24 1
  49   23   50 1
  50   24   51 1
  51   24   52 1
  52   24   53 1
  53   25   26 ar
  54   25   54 1
  55   26   27 ar
  56   26   55 1
  57   27   28 ar
  58   27   56 1
  59   28   57 1

#	End of record

