#	Name: ASD02039045
#	Creating user name:	WinNT
#	Creation time:	15. 06. 2019 20:17

#	Modifying user name:	WinNT
#	Modification time:	15. 06. 2019 20:17

#	Program:	/corina/corina34_cracker 3.40 0067  02.08.2006

@<TRIPOS>MOLECULE
ASD02039045
  39   42    0    0    0
SMALL
NO_CHARGES


@<TRIPOS>ATOM
   1 N1             0.8494     2.2997     2.1557 N.2     
   2 N2             1.2230     1.4322     3.0293 N.2     
   3 C3             1.6754     2.2736     1.1382 C.2     
   4 O4             2.6063     1.3383     1.4035 O.3     
   5 C5             2.2926     0.8232     2.6082 C.2     
   6 N6             1.6034     3.0606     0.0028 N.pl3   
   7 C7             0.6399     4.0709    -0.0881 C.ar    
   8 C8             3.0446    -0.2611     3.3361 C.3     
   9 O9             2.5162    -1.5367     2.9679 O.3     
  10 C10            3.0874    -2.6299     3.5398 C.ar    
  11 C11            2.6226    -3.8914     3.2257 C.ar    
  12 C12            4.1424    -2.4720     4.4352 C.ar    
  13 C13            4.7339    -3.5682     5.0235 C.ar    
  14 C14            4.2776    -4.8475     4.7251 C.ar    
  15 C15            3.2147    -5.0120     3.8170 C.ar    
  16 C16            0.9448     5.3632     0.3219 C.ar    
  17 C17           -0.6227     3.7859    -0.5940 C.ar    
  18 C18           -1.5720     4.7866    -0.6823 C.ar    
  19 C19           -1.2667     6.0701    -0.2680 C.ar    
  20 C20           -0.0096     6.3587     0.2306 C.ar    
  21 N21            4.8567    -5.9585     5.3045 N.am    
  22 C22            4.4171    -7.1963     5.0180 C.2     
  23 C23            3.3520    -7.4143     4.1182 C.2     
  24 C24            2.7440    -6.3646     3.5123 C.2     
  25 O25            4.9523    -8.1544     5.5484 O.2     
  26 Cl26           2.5225     5.7266     0.9486 Cl      
  27 Cl27          -1.0069     2.1751    -1.1150 Cl      
  28 H28            2.2209     2.9119    -0.7303 H       
  29 H29            4.1001    -0.2140     3.0682 H       
  30 H30            2.9360    -0.1195     4.4114 H       
  31 H31            1.8069    -4.0121     2.5283 H       
  32 H32            4.5004    -1.4805     4.6702 H       
  33 H33            5.5518    -3.4341     5.7159 H       
  34 H34           -2.5533     4.5659    -1.0757 H       
  35 H35           -2.0105     6.8500    -0.3382 H       
  36 H36            0.2251     7.3622     0.5536 H       
  37 H37            5.5916    -5.8445     5.9272 H       
  38 H38            3.0223    -8.4212     3.9086 H       
  39 H39            1.9281    -6.5226     2.8226 H       
@<TRIPOS>BOND
   1    1    2 1
   2    1    3 2
   3    2    5 2
   4    3    4 1
   5    3    6 1
   6    4    5 1
   7    5    8 1
   8    6    7 1
   9    6   28 1
  10    7   16 ar
  11    7   17 ar
  12    8    9 1
  13    8   29 1
  14    8   30 1
  15    9   10 1
  16   10   11 ar
  17   10   12 ar
  18   11   15 ar
  19   11   31 1
  20   12   13 ar
  21   12   32 1
  22   13   14 ar
  23   13   33 1
  24   14   15 ar
  25   14   21 1
  26   15   24 1
  27   16   26 1
  28   16   20 ar
  29   17   18 ar
  30   17   27 1
  31   18   19 ar
  32   18   34 1
  33   19   20 ar
  34   19   35 1
  35   20   36 1
  36   21   22 am
  37   21   37 1
  38   22   23 1
  39   22   25 2
  40   23   24 2
  41   23   38 1
  42   24   39 1

#	End of record

