#	Name: ASD03092896
#	Creating user name:	WinNT
#	Creation time:	15. 06. 2019 20:33

#	Modifying user name:	WinNT
#	Modification time:	15. 06. 2019 20:33

#	Program:	/corina/corina34_cracker 3.40 0067  02.08.2006

@<TRIPOS>MOLECULE
ASD03092896
  47   50    0    0    0
SMALL
NO_CHARGES


@<TRIPOS>ATOM
   1 C1             0.5852     1.4186     0.4889 C.3     
   2 C2             0.2807    -0.0325     0.2192 C.2     
   3 O3            -0.0763    -0.7557     1.1249 O.2     
   4 N4             0.4051    -0.5265    -1.0286 N.am    
   5 C5             0.7193     0.3703    -2.1436 C.3     
   6 C6             1.1916    -0.2675    -3.4516 C.3     
   7 C7            -0.2099     0.3392    -3.3587 C.3     
   8 C8             0.2355    -1.8850    -1.2572 C.2     
   9 N9             0.2015    -2.4462    -2.4259 N.2     
  10 C10            0.0321    -3.7572    -2.4638 C.2     
  11 C11           -0.0870    -4.3576    -1.2382 C.2     
  12 S12            0.0417    -3.1063    -0.0041 S.3     
  13 C13           -0.2836    -5.7996    -0.9941 C.ar    
  14 C14            0.4927    -6.4622    -0.0402 C.ar    
  15 C15            0.3035    -7.8101     0.1826 C.ar    
  16 C16           -0.6524    -8.5061    -0.5362 C.ar    
  17 C17           -1.4247    -7.8564    -1.4830 C.ar    
  18 C18           -1.2507    -6.5075    -1.7120 C.ar    
  19 S19           -0.8871   -10.2279    -0.2448 S.o2    
  20 N20           -2.0297   -10.3725     0.9451 N.am    
  21 O21           -1.4696   -10.7592    -1.4271 O.2     
  22 O22            0.3301   -10.7111     0.3068 O.2     
  23 C23           -0.0248    -4.5176    -3.7334 C.ar    
  24 C24            0.6335    -5.7423    -3.8461 C.ar    
  25 C25            0.5771    -6.4463    -5.0311 C.ar    
  26 C26           -0.1313    -5.9395    -6.1075 C.ar    
  27 Cl27          -0.1985    -6.8311    -7.5955 Cl      
  28 C28           -0.7867    -4.7244    -6.0012 C.ar    
  29 C29           -0.7418    -4.0146    -4.8191 C.ar    
  30 H30            1.6372     1.5260     0.7531 H       
  31 H31            0.3731     2.0064    -0.4042 H       
  32 H32           -0.0344     1.7728     1.3127 H       
  33 H33            1.1532     1.3310    -1.8663 H       
  34 H34            1.9366     0.2736    -4.0351 H       
  35 H35            1.2686    -1.3543    -3.4826 H       
  36 H36           -1.0550    -0.3486    -3.3285 H       
  37 H37           -0.3870     1.2793    -3.8810 H       
  38 H38            1.2394    -5.9203     0.5213 H       
  39 H39            0.9031    -8.3237     0.9195 H       
  40 H40           -2.1684    -8.4060    -2.0409 H       
  41 H41           -1.8574    -6.0006    -2.4478 H       
  42 H42           -2.4268    -9.5781     1.3352 H       
  43 H43           -2.3018   -11.2515     1.2520 H       
  44 H44            1.1866    -6.1383    -3.0073 H       
  45 H45            1.0867    -7.3944    -5.1196 H       
  46 H46           -1.3378    -4.3338    -6.8439 H       
  47 H47           -1.2571    -3.0691    -4.7359 H       
@<TRIPOS>BOND
   1    1    2 1
   2    1   30 1
   3    1   31 1
   4    1   32 1
   5    2    3 2
   6    2    4 am
   7    4    5 1
   8    4    8 1
   9    5    7 1
  10    5    6 1
  11    5   33 1
  12    6    7 1
  13    6   34 1
  14    6   35 1
  15    7   36 1
  16    7   37 1
  17    8   12 1
  18    8    9 2
  19    9   10 1
  20   10   11 2
  21   10   23 1
  22   11   12 1
  23   11   13 1
  24   13   18 ar
  25   13   14 ar
  26   14   15 ar
  27   14   38 1
  28   15   16 ar
  29   15   39 1
  30   16   17 ar
  31   16   19 1
  32   17   18 ar
  33   17   40 1
  34   18   41 1
  35   19   20 am
  36   19   21 2
  37   19   22 2
  38   20   42 1
  39   20   43 1
  40   23   29 ar
  41   23   24 ar
  42   24   25 ar
  43   24   44 1
  44   25   26 ar
  45   25   45 1
  46   26   27 1
  47   26   28 ar
  48   28   29 ar
  49   28   46 1
  50   29   47 1

#	End of record

