#	Name: ASD03240454
#	Creating user name:	WinNT
#	Creation time:	15. 06. 2019 20:35

#	Modifying user name:	WinNT
#	Modification time:	15. 06. 2019 20:35

#	Program:	/corina/corina34_cracker 3.40 0067  02.08.2006

@<TRIPOS>MOLECULE
ASD03240454
  58   61    0    0    0
SMALL
NO_CHARGES


@<TRIPOS>ATOM
   1 C1             0.0291     1.4700     0.0794 C.ar    
   2 C2            -2.5253     0.3087     1.2783 C.ar    
   3 C3            -2.1639     1.6405     1.1847 C.ar    
   4 C4            -1.3326     2.1128     0.0198 C.3     
   5 C5            -3.2866    -0.1291     2.3432 C.ar    
   6 C6            -3.6909     0.7729     3.3246 C.ar    
   7 C7            -3.3245     2.1132     3.2252 C.ar    
   8 C8            -2.5631     2.5405     2.1562 C.ar    
   9 C9            -4.5103     0.3077     4.4721 C.2     
  10 C10           -4.9722     1.0791     5.4982 C.2     
  11 N11           -5.6711     0.2785     6.3278 N.pl3   
  12 N12           -5.6444    -1.0210     5.8074 N.2     
  13 C13           -4.9572    -1.0091     4.6960 C.2     
  14 C14            0.9147     1.8209     1.0816 C.ar    
  15 C15            0.3887     0.5261    -0.8648 C.ar    
  16 C16            1.6342    -0.0688    -0.8090 C.ar    
  17 C17            2.5246     0.2816     0.1956 C.ar    
  18 C18            2.1616     1.2292     1.1415 C.ar    
  19 O19            3.7503    -0.3025     0.2529 O.3     
  20 C20           -1.1828     3.6354     0.0820 C.3     
  21 C21           -0.3898     4.1153    -1.1357 C.3     
  22 N22           -1.0927     3.7244    -2.3643 N.3     
  23 C23           -1.2067     2.2642    -2.4692 C.3     
  24 C24           -2.0233     1.7276    -1.2913 C.3     
  25 C25            4.6150     0.1068     1.3143 C.3     
  26 C26            5.9391    -0.6535     1.2155 C.3     
  27 C27            6.8649    -0.2152     2.3519 C.3     
  28 O28            8.1016    -0.9254     2.2596 O.3     
  29 C29            9.0430    -0.5882     3.2804 C.3     
  30 H30           -2.2151    -0.3890     0.5145 H       
  31 H31           -3.5685    -1.1692     2.4151 H       
  32 H32           -3.6354     2.8167     3.9834 H       
  33 H33           -2.2781     3.5793     2.0784 H       
  34 H34           -4.8078     2.1392     5.6233 H       
  35 H35           -6.1155     0.5550     7.1445 H       
  36 H36           -4.7602    -1.8617     4.0631 H       
  37 H37            0.6315     2.5584     1.8180 H       
  38 H38           -0.3050     0.2534    -1.6464 H       
  39 H39            1.9144    -0.8063    -1.5466 H       
  40 H40            2.8531     1.5040     1.9243 H       
  41 H41           -2.1695     4.0985     0.0793 H       
  42 H42           -0.6529     3.9120     0.9935 H       
  43 H43           -0.2936     5.2005    -1.1018 H       
  44 H44            0.6017     3.6625    -1.1248 H       
  45 H45           -2.0001     4.1626    -2.4167 H       
  46 H46           -1.7039     2.0049    -3.4039 H       
  47 H47           -0.2114     1.8201    -2.4521 H       
  48 H48           -2.0940     0.6422    -1.3618 H       
  49 H49           -3.0235     2.1603    -1.3148 H       
  50 H50            4.8042     1.1774     1.2365 H       
  51 H51            4.1422    -0.1099     2.2722 H       
  52 H52            5.7499    -1.7242     1.2933 H       
  53 H53            6.4119    -0.4368     0.2576 H       
  54 H54            7.0541     0.8554     2.2741 H       
  55 H55            6.3921    -0.4320     3.3098 H       
  56 H56            9.2774     0.4747     3.2218 H       
  57 H57            8.6154    -0.8127     4.2576 H       
  58 H58            9.9544    -1.1694     3.1404 H       
@<TRIPOS>BOND
   1    1   14 ar
   2    1   15 ar
   3    1    4 1
   4    2    3 ar
   5    2    5 ar
   6    2   30 1
   7    3    4 1
   8    3    8 ar
   9    4   20 1
  10    4   24 1
  11    5    6 ar
  12    5   31 1
  13    6    7 ar
  14    6    9 1
  15    7    8 ar
  16    7   32 1
  17    8   33 1
  18    9   10 2
  19    9   13 1
  20   10   11 1
  21   10   34 1
  22   11   12 1
  23   11   35 1
  24   12   13 2
  25   13   36 1
  26   14   18 ar
  27   14   37 1
  28   15   16 ar
  29   15   38 1
  30   16   17 ar
  31   16   39 1
  32   17   18 ar
  33   17   19 1
  34   18   40 1
  35   19   25 1
  36   20   21 1
  37   20   41 1
  38   20   42 1
  39   21   22 1
  40   21   43 1
  41   21   44 1
  42   22   23 1
  43   22   45 1
  44   23   24 1
  45   23   46 1
  46   23   47 1
  47   24   48 1
  48   24   49 1
  49   25   26 1
  50   25   50 1
  51   25   51 1
  52   26   27 1
  53   26   52 1
  54   26   53 1
  55   27   28 1
  56   27   54 1
  57   27   55 1
  58   28   29 1
  59   29   56 1
  60   29   57 1
  61   29   58 1

#	End of record

