#	Name: ASD01884135
#	Creating user name:	WinNT
#	Creation time:	15. 06. 2019 19:47

#	Modifying user name:	WinNT
#	Modification time:	15. 06. 2019 19:47

#	Program:	/corina/corina34_cracker 3.40 0067  02.08.2006

@<TRIPOS>MOLECULE
ASD01884135
  27   28    0    0    0
SMALL
NO_CHARGES


@<TRIPOS>ATOM
   1 C1            -0.0187     1.5261     0.0104 C.3     
   2 C2             0.0021    -0.0041     0.0020 C.3     
   3 N3             0.7064    -0.4787    -1.1959 N.3     
   4 C4             2.1034    -0.0262    -1.2048 C.3     
   5 C5             2.1454     1.5033    -1.2324 C.3     
   6 C6             1.4196     2.0513    -0.0005 C.3     
   7 C7             1.4055     3.5573    -0.0527 C.ar    
   8 C8             1.9980     4.2896     0.9589 C.ar    
   9 C9             1.9850     5.6711     0.9110 C.ar    
  10 C10            1.3798     6.3202    -0.1488 C.ar    
  11 C11            0.7881     5.5879    -1.1610 C.ar    
  12 C12            0.8049     4.2064    -1.1152 C.ar    
  13 H13           -0.5449     1.8878    -0.8730 H       
  14 H14           -0.5279     1.8782     0.9076 H       
  15 H15            0.5163    -0.3652     0.8927 H       
  16 H16           -1.0206    -0.3811    -0.0047 H       
  17 H17            0.6512    -1.4832    -1.2736 H       
  18 H18            2.6078    -0.3873    -0.3085 H       
  19 H19            2.6069    -0.4194    -2.0879 H       
  20 H20            3.1823     1.8391    -1.2232 H       
  21 H21            1.6532     1.8646    -2.1353 H       
  22 H22            1.9345     1.7220     0.9021 H       
  23 H23            2.4708     3.7824     1.7870 H       
  24 H24            2.4473     6.2432     1.7018 H       
  25 H25            1.3690     7.3995    -0.1859 H       
  26 H26            0.3150     6.0951    -1.9888 H       
  27 H27            0.3458     3.6343    -1.9079 H       
@<TRIPOS>BOND
   1    1    2 1
   2    1    6 1
   3    1   13 1
   4    1   14 1
   5    2    3 1
   6    2   15 1
   7    2   16 1
   8    3    4 1
   9    3   17 1
  10    4    5 1
  11    4   18 1
  12    4   19 1
  13    5    6 1
  14    5   20 1
  15    5   21 1
  16    6    7 1
  17    6   22 1
  18    7    8 ar
  19    7   12 ar
  20    8    9 ar
  21    8   23 1
  22    9   10 ar
  23    9   24 1
  24   10   11 ar
  25   10   25 1
  26   11   12 ar
  27   11   26 1
  28   12   27 1

#	End of record

