#	Name: ASD03331584
#	Creating user name:	WinNT
#	Creation time:	15. 06. 2019 20:39

#	Modifying user name:	WinNT
#	Modification time:	15. 06. 2019 20:39

#	Program:	/corina/corina34_cracker 3.40 0067  02.08.2006

@<TRIPOS>MOLECULE
ASD03331584
  56   58    0    0    0
SMALL
NO_CHARGES


@<TRIPOS>ATOM
   1 C1            -0.4672     0.7337     1.5435 C.ar    
   2 C2            -0.3154    -0.6751     1.1197 C.2     
   3 N3            -1.3308    -1.5747     0.9678 N.pl3   
   4 C4            -0.7728    -2.7564     0.5920 C.2     
   5 C5             0.5697    -2.5541     0.4934 C.2     
   6 N6             0.8173    -1.2670     0.8216 N.2     
   7 C7             1.5727    -3.5575     0.0952 C.2     
   8 O8             1.2238    -4.6890    -0.1826 O.2     
   9 N9             2.8766    -3.2214     0.0387 N.am    
  10 C10            3.8737    -4.2190    -0.3572 C.3     
  11 C11            5.2147    -3.8456     0.2202 C.2     
  12 C12           -2.7633    -1.3215     1.1510 C.3     
  13 C13           -3.4605    -2.6281     1.5398 C.3     
  14 C14           -3.8323    -3.4102     0.2819 C.3     
  15 O15           -2.6699    -3.7674    -0.4565 O.3     
  16 C16           -1.5232    -4.0409     0.3561 C.3     
  17 C17            3.9707    -4.2653    -1.8834 C.3     
  18 C18            4.3383    -2.8779    -2.4135 C.3     
  19 C19            5.0478    -5.2707    -2.2958 C.3     
  20 C20            2.6229    -4.6937    -2.4673 C.3     
  21 C21            0.3506     1.2560     2.5485 C.ar    
  22 C22            0.2036     2.5737     2.9400 C.ar    
  23 C23           -0.7505     3.3739     2.3396 C.ar    
  24 C24           -1.5650     2.8618     1.3420 C.ar    
  25 C25           -1.4240     1.5484     0.9373 C.ar    
  26 N26            6.1795    -4.7787     0.3418 N.am    
  27 O27            5.4257    -2.7053     0.5754 O.2     
  28 C28            7.4476    -4.4407     0.9931 C.3     
  29 F29            1.2829     0.4749     3.1367 F       
  30 F30           -2.4954     3.6501     0.7605 F       
  31 H31            3.1549    -2.3190     0.2603 H       
  32 H32            3.5767    -5.1984     0.0179 H       
  33 H33           -2.9046    -0.5843     1.9414 H       
  34 H34           -3.1884    -0.9449     0.2207 H       
  35 H35           -2.7892    -3.2280     2.1543 H       
  36 H36           -4.3639    -2.4022     2.1063 H       
  37 H37           -4.3671    -4.3158     0.5681 H       
  38 H38           -4.4794    -2.7956    -0.3439 H       
  39 H39           -0.8754    -4.7533    -0.1549 H       
  40 H40           -1.8437    -4.4569     1.3113 H       
  41 H41            5.2984    -2.5727    -1.9975 H       
  42 H42            4.4073    -2.9109    -3.5008 H       
  43 H43            3.5709    -2.1617    -2.1197 H       
  44 H44            4.7666    -6.2660    -1.9517 H       
  45 H45            5.1439    -5.2753    -3.3815 H       
  46 H46            6.0002    -4.9869    -1.8480 H       
  47 H47            1.8555    -3.9775    -2.1735 H       
  48 H48            2.6919    -4.7267    -3.5546 H       
  49 H49            2.3610    -5.6821    -2.0897 H       
  50 H50            0.8352     2.9787     3.7168 H       
  51 H51           -0.8619     4.4025     2.6495 H       
  52 H52           -2.0593     1.1506     0.1598 H       
  53 H53            6.0344    -5.6741    -0.0019 H       
  54 H54            8.0980    -5.3154     0.9979 H       
  55 H55            7.9318    -3.6309     0.4474 H       
  56 H56            7.2564    -4.1245     2.0185 H       
@<TRIPOS>BOND
   1    1    2 1
   2    1   21 ar
   3    1   25 ar
   4    2    3 1
   5    2    6 2
   6    3    4 1
   7    3   12 1
   8    4    5 2
   9    4   16 1
  10    5    6 1
  11    5    7 1
  12    7    8 2
  13    7    9 am
  14    9   10 1
  15    9   31 1
  16   10   11 1
  17   10   17 1
  18   10   32 1
  19   11   26 am
  20   11   27 2
  21   12   13 1
  22   12   33 1
  23   12   34 1
  24   13   14 1
  25   13   35 1
  26   13   36 1
  27   14   15 1
  28   14   37 1
  29   14   38 1
  30   15   16 1
  31   16   39 1
  32   16   40 1
  33   17   18 1
  34   17   19 1
  35   17   20 1
  36   18   41 1
  37   18   42 1
  38   18   43 1
  39   19   44 1
  40   19   45 1
  41   19   46 1
  42   20   47 1
  43   20   48 1
  44   20   49 1
  45   21   22 ar
  46   21   29 1
  47   22   23 ar
  48   22   50 1
  49   23   24 ar
  50   23   51 1
  51   24   25 ar
  52   24   30 1
  53   25   52 1
  54   26   28 1
  55   26   53 1
  56   28   54 1
  57   28   55 1
  58   28   56 1

#	End of record

