#	Name: ASD01028335
#	Creating user name:	WinNT
#	Creation time:	15. 06. 2019 18:57

#	Modifying user name:	WinNT
#	Modification time:	15. 06. 2019 18:57

#	Program:	/corina/corina34_cracker 3.40 0067  02.08.2006

@<TRIPOS>MOLECULE
ASD01028335
  45   49    0    0    0
SMALL
NO_CHARGES


@<TRIPOS>ATOM
   1 C1            -0.0171     1.4109     0.0098 C.ar    
   2 C2             0.0021    -0.0041     0.0020 C.ar    
   3 C3             1.2152     2.1061     0.0018 C.ar    
   4 C4             2.3805     1.3627    -0.0134 C.ar    
   5 C5             2.3142    -0.0255    -0.0203 C.ar    
   6 N6             1.1661    -0.6611    -0.0131 N.ar    
   7 O7             1.2520     3.4617     0.0083 O.3     
   8 C8             2.5423     4.0757    -0.0007 C.3     
   9 C9             2.3855     5.5745     0.0084 C.2     
  10 N10            2.3128     6.3619     1.1037 N.pl3   
  11 C11            2.1741     7.6479     0.6378 C.2     
  12 N12            2.1697     7.5779    -0.6833 N.2     
  13 N13            2.3009     6.3492    -1.0443 N.2     
  14 N14            2.3508     6.1153     2.4776 N.2     
  15 C15            2.2546     7.1067     3.3357 C.2     
  16 C16            2.1109     8.4373     2.8887 C.2     
  17 C17            2.0716     8.7087     1.5575 C.2     
  18 C18            2.2972     6.8229     4.7913 C.ar    
  19 C19           -1.2225    -0.6979     0.0100 C.ar    
  20 C20           -2.3811     0.0329     0.0250 C.ar    
  21 C21           -2.3230     1.4307     0.0319 C.ar    
  22 O22           -3.5840    -0.5985     0.0327 O.3     
  23 N23           -1.1783     2.0682     0.0189 N.ar    
  24 C24           -4.7501     0.2274     0.0483 C.3     
  25 C25            2.1905     7.8649     5.7104 C.ar    
  26 C26            2.4383     5.5127     5.2446 C.ar    
  27 C27            2.4774     5.2545     6.5998 C.ar    
  28 C28            2.3763     6.2933     7.5075 C.ar    
  29 C29            2.2308     7.5952     7.0633 C.ar    
  30 H30            3.3396     1.8592    -0.0202 H       
  31 H31            3.2313    -0.5959    -0.0321 H       
  32 H32            3.0995     3.7633     0.8825 H       
  33 H33            3.0828     3.7723    -0.8973 H       
  34 H34            2.0327     9.2414     3.6055 H       
  35 H35            1.9620     9.7253     1.2098 H       
  36 H36           -1.2480    -1.7775     0.0042 H       
  37 H37           -3.2425     1.9972     0.0438 H       
  38 H38           -4.7413     0.8517     0.9418 H       
  39 H39           -4.7579     0.8618    -0.8380 H       
  40 H40           -5.6405    -0.4012     0.0531 H       
  41 H41            2.0768     8.8818     5.3646 H       
  42 H42            2.5166     4.7008     4.5367 H       
  43 H43            2.5868     4.2395     6.9522 H       
  44 H44            2.4066     6.0867     8.5672 H       
  45 H45            2.1523     8.4025     7.7764 H       
@<TRIPOS>BOND
   1    1    2 ar
   2    1    3 ar
   3    1   23 ar
   4    2   19 ar
   5    2    6 ar
   6    3    4 ar
   7    3    7 1
   8    4    5 ar
   9    4   30 1
  10    5    6 ar
  11    5   31 1
  12    7    8 1
  13    8    9 1
  14    8   32 1
  15    8   33 1
  16    9   10 1
  17    9   13 2
  18   10   11 1
  19   10   14 1
  20   11   12 2
  21   11   17 1
  22   12   13 1
  23   14   15 2
  24   15   16 1
  25   15   18 1
  26   16   17 2
  27   16   34 1
  28   17   35 1
  29   18   26 ar
  30   18   25 ar
  31   19   20 ar
  32   19   36 1
  33   20   21 ar
  34   20   22 1
  35   21   23 ar
  36   21   37 1
  37   22   24 1
  38   24   38 1
  39   24   39 1
  40   24   40 1
  41   25   29 ar
  42   25   41 1
  43   26   27 ar
  44   26   42 1
  45   27   28 ar
  46   27   43 1
  47   28   29 ar
  48   28   44 1
  49   29   45 1

#	End of record

