#	Name: ASD03331640
#	Creating user name:	WinNT
#	Creation time:	15. 06. 2019 20:39

#	Modifying user name:	WinNT
#	Modification time:	15. 06. 2019 20:39

#	Program:	/corina/corina34_cracker 3.40 0067  02.08.2006

@<TRIPOS>MOLECULE
ASD03331640
  38   41    0    0    0
SMALL
NO_CHARGES


@<TRIPOS>ATOM
   1 C1            -0.0165     1.3624     0.0095 C.ar    
   2 C2             0.0021    -0.0041     0.0020 C.ar    
   3 C3             1.2078    -0.6915    -0.0132 C.ar    
   4 C4             2.4051    -0.0100    -0.0210 C.ar    
   5 C5             2.4096     1.3820    -0.0135 C.ar    
   6 C6             1.1850     2.0725     0.0019 C.ar    
   7 N7             3.4220     2.3175    -0.0186 N.pl3   
   8 C8             2.8946     3.5859    -0.0070 C.2     
   9 C9             1.5181     3.5042     0.0069 C.2     
  10 C10            3.6773     4.8378    -0.0075 C.ar    
  11 C11            0.5640     4.6353     0.0218 C.ar    
  12 C12            4.7651     4.9847    -0.8711 C.ar    
  13 C13            5.4916     6.1573    -0.8665 C.ar    
  14 C14            5.1448     7.1865    -0.0091 C.ar    
  15 C15            4.0683     7.0478     0.8491 C.ar    
  16 C16            3.3297     5.8828     0.8514 C.ar    
  17 C17           -1.2213     6.7519     0.0497 C.ar    
  18 C18           -0.4036     6.5547    -1.0491 C.ar    
  19 C19            0.4878     5.5023    -1.0693 C.ar    
  20 C20           -0.2672     4.8362     1.1242 C.ar    
  21 C21           -1.1546     5.8928     1.1320 C.ar    
  22 N22           -2.0330     6.1110     2.3033 N.pl3   
  23 O23           -2.8133     7.0461     2.3136 O.2     
  24 O24           -1.9754     5.3553     3.2568 O.2     
  25 H25           -0.9581     1.8913     0.0169 H       
  26 H26           -0.9280    -0.5529     0.0083 H       
  27 H27            1.2074    -1.7715    -0.0186 H       
  28 H28            3.3378    -0.5543    -0.0324 H       
  29 H29            4.3696     2.1102    -0.0286 H       
  30 H30            5.0371     4.1821    -1.5405 H       
  31 H31            6.3333     6.2721    -1.5335 H       
  32 H32            5.7173     8.1023    -0.0095 H       
  33 H33            3.8034     7.8550     1.5159 H       
  34 H34            2.4870     5.7775     1.5186 H       
  35 H35           -1.9176     7.5774     0.0606 H       
  36 H36           -0.4604     7.2290    -1.8909 H       
  37 H37            1.1257     5.3496    -1.9273 H       
  38 H38           -0.2164     4.1659     1.9695 H       
@<TRIPOS>BOND
   1    1    2 ar
   2    1    6 ar
   3    1   25 1
   4    2    3 ar
   5    2   26 1
   6    3    4 ar
   7    3   27 1
   8    4    5 ar
   9    4   28 1
  10    5    7 1
  11    5    6 ar
  12    6    9 1
  13    7    8 1
  14    7   29 1
  15    8    9 2
  16    8   10 1
  17    9   11 1
  18   10   12 ar
  19   10   16 ar
  20   11   20 ar
  21   11   19 ar
  22   12   13 ar
  23   12   30 1
  24   13   14 ar
  25   13   31 1
  26   14   15 ar
  27   14   32 1
  28   15   16 ar
  29   15   33 1
  30   16   34 1
  31   17   18 ar
  32   17   21 ar
  33   17   35 1
  34   18   19 ar
  35   18   36 1
  36   19   37 1
  37   20   21 ar
  38   20   38 1
  39   21   22 1
  40   22   23 2
  41   22   24 2

#	End of record

