#	Name: ASD03731605
#	Creating user name:	WinNT
#	Creation time:	15. 06. 2019 20:46

#	Modifying user name:	WinNT
#	Modification time:	15. 06. 2019 20:46

#	Program:	/corina/corina34_cracker 3.40 0067  02.08.2006

@<TRIPOS>MOLECULE
ASD03731605
  41   42    0    0    0
SMALL
NO_CHARGES


@<TRIPOS>ATOM
   1 C1            -0.1362     1.4672     0.0333 C.2     
   2 C2            -0.0851    -0.0063     0.0191 C.ar    
   3 C3             1.1401    -0.6649    -0.1384 C.ar    
   4 C4             1.1828    -2.0445    -0.1506 C.ar    
   5 C5             0.0129    -2.7784    -0.0073 C.ar    
   6 C6            -1.2080    -2.1270     0.1493 C.ar    
   7 C7            -1.2596    -0.7502     0.1688 C.ar    
   8 O8             0.8870     2.1123    -0.0920 O.2     
   9 N9            -1.3176     2.0991     0.1795 N.am    
  10 S10           -1.3750     3.7540     0.1954 S.o2    
  11 O11           -2.7501     4.0552     0.3893 O.2     
  12 O12           -0.4000     4.1293     1.1587 O.2     
  13 C13           -0.8452     4.2413    -1.4696 C.3     
  14 O14            0.0593    -4.1349    -0.0202 O.3     
  15 C15           -0.1521    -4.7695    -1.2039 C.ar    
  16 C16           -0.0458    -6.1554    -1.2804 C.ar    
  17 C17           -0.2614    -6.8000    -2.4871 C.ar    
  18 C18           -0.5822    -6.0681    -3.6155 C.ar    
  19 C19           -0.6886    -4.6875    -3.5419 C.ar    
  20 C20           -0.4791    -4.0384    -2.3343 C.ar    
  21 O21           -1.0042    -3.9701    -4.6531 O.3     
  22 C22           -1.2123    -4.7038    -5.8616 C.3     
  23 F23           -2.2673    -5.6053    -5.6840 F       
  24 F24           -1.5259    -3.8172    -6.8973 F       
  25 F25           -0.0475    -5.4073    -6.1865 F       
  26 O26            0.2702    -6.8762    -0.1706 O.3     
  27 C27            0.3623    -8.2942    -0.3224 C.3     
  28 F28           -2.3432    -2.8464     0.2874 F       
  29 F29            2.2787     0.0487    -0.2788 F       
  30 H30            2.1274    -2.5538    -0.2721 H       
  31 H31           -2.2065    -0.2463     0.2948 H       
  32 H32           -2.1342     1.5846     0.2755 H       
  33 H33           -1.5274     3.8176    -2.2065 H       
  34 H34           -0.8532     5.3284    -1.5499 H       
  35 H35            0.1634     3.8709    -1.6530 H       
  36 H36           -0.1787    -7.8751    -2.5468 H       
  37 H37           -0.7496    -6.5724    -4.5557 H       
  38 H38           -0.5668    -2.9636    -2.2760 H       
  39 H39            0.6199    -8.7462     0.6355 H       
  40 H40           -0.5960    -8.6861    -0.6631 H       
  41 H41            1.1334    -8.5318    -1.0553 H       
@<TRIPOS>BOND
   1    1    2 1
   2    1    8 2
   3    1    9 am
   4    2    3 ar
   5    2    7 ar
   6    3    4 ar
   7    3   29 1
   8    4    5 ar
   9    4   30 1
  10    5    6 ar
  11    5   14 1
  12    6    7 ar
  13    6   28 1
  14    7   31 1
  15    9   10 am
  16    9   32 1
  17   10   11 2
  18   10   12 2
  19   10   13 1
  20   13   33 1
  21   13   34 1
  22   13   35 1
  23   14   15 1
  24   15   16 ar
  25   15   20 ar
  26   16   17 ar
  27   16   26 1
  28   17   18 ar
  29   17   36 1
  30   18   19 ar
  31   18   37 1
  32   19   20 ar
  33   19   21 1
  34   20   38 1
  35   21   22 1
  36   22   23 1
  37   22   24 1
  38   22   25 1
  39   26   27 1
  40   27   39 1
  41   27   40 1
  42   27   41 1

#	End of record

