#	Name: ASD00311002
#	Creating user name:	WinNT
#	Creation time:	15. 06. 2019 18:34

#	Modifying user name:	WinNT
#	Modification time:	15. 06. 2019 18:34

#	Program:	/corina/corina34_cracker 3.40 0067  02.08.2006

@<TRIPOS>MOLECULE
ASD00311002
  27   28    0    0    0
SMALL
NO_CHARGES


@<TRIPOS>ATOM
   1 C1            -0.0167     1.3791     0.0096 C.ar    
   2 C2             0.0021    -0.0041     0.0020 C.ar    
   3 N3             1.1413    -0.6700    -0.0120 N.ar    
   4 C4             2.3057    -0.0557    -0.0198 C.ar    
   5 C5             2.3727     1.3387    -0.0129 C.ar    
   6 C6             1.1806     2.0728     0.0019 C.ar    
   7 C7             4.9180     1.2503    -0.0357 C.2     
   8 C8             3.6810     2.0289    -0.0207 C.2     
   9 C9             8.5970     1.7470    -0.0653 C.ar    
  10 C10            7.3575     1.0975    -0.0579 C.ar    
  11 C11            6.1131     1.8808    -0.0428 C.2     
  12 C12            9.7590     1.0063    -0.0800 C.ar    
  13 C13            9.7022    -0.3782    -0.0873 C.ar    
  14 C14            8.4784    -1.0283    -0.0801 C.ar    
  15 C15            7.3080    -0.3009    -0.0655 C.ar    
  16 O16            3.7274     3.2453    -0.0146 O.2     
  17 Cl17          11.1713    -1.3029    -0.1063 Cl      
  18 H18           -0.9560     1.9120     0.0170 H       
  19 H19           -0.9310    -0.5479     0.0080 H       
  20 H20            3.2169    -0.6355    -0.0312 H       
  21 H21            1.1951     3.1527     0.0072 H       
  22 H22            4.8767     0.1711    -0.0411 H       
  23 H23            8.6428     2.8260    -0.0641 H       
  24 H24            6.1543     2.9600    -0.0374 H       
  25 H25           10.7164     1.5061    -0.0860 H       
  26 H26            8.4418    -2.1077    -0.0862 H       
  27 H27            6.3550    -0.8089    -0.0602 H       
@<TRIPOS>BOND
   1    1    2 ar
   2    1    6 ar
   3    1   18 1
   4    2    3 ar
   5    2   19 1
   6    3    4 ar
   7    4    5 ar
   8    4   20 1
   9    5    6 ar
  10    5    8 1
  11    6   21 1
  12    7    8 1
  13    7   11 2
  14    7   22 1
  15    8   16 2
  16    9   10 ar
  17    9   12 ar
  18    9   23 1
  19   10   11 1
  20   10   15 ar
  21   11   24 1
  22   12   13 ar
  23   12   25 1
  24   13   14 ar
  25   13   17 1
  26   14   15 ar
  27   14   26 1
  28   15   27 1

#	End of record

