#	Name: ASD05730012
#	Creating user name:	WinNT
#	Creation time:	15. 06. 2019 21:02

#	Modifying user name:	WinNT
#	Modification time:	15. 06. 2019 21:02

#	Program:	/corina/corina34_cracker 3.40 0067  02.08.2006

@<TRIPOS>MOLECULE
ASD05730012
  61   65    0    0    0
SMALL
NO_CHARGES


@<TRIPOS>ATOM
   1 N1            -0.0152     1.3240     0.0075 N.ar    
   2 C2             0.0024    -0.0045     0.0075 C.ar    
   3 N3             1.1292    -0.7015     0.0052 N.ar    
   4 C4             2.3018    -0.0809     0.0029 C.ar    
   5 C5             2.3221     1.3313     0.0029 C.ar    
   6 C6             1.1056     2.0230     0.0053 C.ar    
   7 N7             3.4846    -0.7744     0.0010 N.am    
   8 C8             4.6645    -0.1290    -0.0009 C.2     
   9 C9             4.7417     1.2784    -0.0006 C.2     
  10 C10            3.6065     2.0250    -0.0001 C.2     
  11 N11           -1.1996    -0.6849     0.0103 N.pl3   
  12 C12           -2.4035     0.0208     0.1318 C.ar    
  13 C13           -3.5376    -0.4207    -0.5371 C.ar    
  14 C14           -4.7245     0.2746    -0.4171 C.ar    
  15 C15           -4.7840     1.4154     0.3726 C.ar    
  16 C16           -3.6498     1.8569     1.0415 C.ar    
  17 C17           -2.4644     1.1585     0.9256 C.ar    
  18 N18           -5.9868     2.1204     0.4940 N.3     
  19 O19            5.6955    -0.7791    -0.0025 O.2     
  20 C20            3.4627    -2.2392     0.0016 C.3     
  21 C21           -8.3760     2.0317     1.0208 C.3     
  22 C22           -7.0637     1.2452     0.9778 C.3     
  23 C23           -5.8266     3.2880     1.3718 C.3     
  24 N24           -8.2157     3.1993     1.8986 N.3     
  25 C25           -7.1389     4.0745     1.4148 C.3     
  26 C26           -9.4783     3.9394     2.0260 C.3     
  27 C27            4.1753    -2.7775    -1.2515 C.3     
  28 C28            5.3636    -3.6254    -0.7527 C.3     
  29 C29            4.9552    -4.0451     0.6813 C.3     
  30 C30            4.2427    -2.7789     1.2182 C.3     
  31 C31            6.0873     1.9570    -0.0023 C.3     
  32 H32            1.0837     3.1028     0.0050 H       
  33 H33            3.6532     3.1040     0.0001 H       
  34 H34           -1.2101    -1.6513    -0.0718 H       
  35 H35           -3.4912    -1.3077    -1.1515 H       
  36 H36           -5.6064    -0.0686    -0.9375 H       
  37 H37           -3.6960     2.7443     1.6554 H       
  38 H38           -1.5824     1.5018     1.4458 H       
  39 H39            2.4334    -2.5970     0.0284 H       
  40 H40           -8.6332     2.3651     0.0154 H       
  41 H41           -9.1703     1.3928     1.4068 H       
  42 H42           -7.1713     0.3948     0.3045 H       
  43 H43           -6.8205     0.8886     1.9787 H       
  44 H44           -5.5693     2.9546     2.3771 H       
  45 H45           -5.0322     3.9269     0.9858 H       
  46 H46           -7.0313     4.9249     2.0880 H       
  47 H47           -7.3821     4.4311     0.4139 H       
  48 H48          -10.2413     3.2860     2.4492 H       
  49 H49           -9.3315     4.7983     2.6808 H       
  50 H50           -9.7989     4.2829     1.0425 H       
  51 H51            3.4922    -3.3972    -1.8323 H       
  52 H52            4.5374    -1.9488    -1.8600 H       
  53 H53            5.4968    -4.5040    -1.3839 H       
  54 H54            6.2754    -3.0287    -0.7304 H       
  55 H55            4.2699    -4.8923     0.6555 H       
  56 H56            5.8352    -4.2769     1.2813 H       
  57 H57            4.9736    -2.0454     1.5587 H       
  58 H58            3.5581    -3.0397     2.0252 H       
  59 H59            6.4103     2.1209    -1.0303 H       
  60 H60            6.0117     2.9151     0.5120 H       
  61 H61            6.8132     1.3258     0.5104 H       
@<TRIPOS>BOND
   1    1    2 ar
   2    1    6 ar
   3    2    3 ar
   4    2   11 1
   5    3    4 ar
   6    4    5 ar
   7    4    7 1
   8    5    6 ar
   9    5   10 1
  10    6   32 1
  11    7    8 am
  12    7   20 1
  13    8    9 1
  14    8   19 2
  15    9   10 2
  16    9   31 1
  17   10   33 1
  18   11   12 1
  19   11   34 1
  20   12   13 ar
  21   12   17 ar
  22   13   14 ar
  23   13   35 1
  24   14   15 ar
  25   14   36 1
  26   15   16 ar
  27   15   18 1
  28   16   17 ar
  29   16   37 1
  30   17   38 1
  31   18   23 1
  32   18   22 1
  33   20   27 1
  34   20   30 1
  35   20   39 1
  36   21   22 1
  37   21   24 1
  38   21   40 1
  39   21   41 1
  40   22   42 1
  41   22   43 1
  42   23   25 1
  43   23   44 1
  44   23   45 1
  45   24   26 1
  46   24   25 1
  47   25   46 1
  48   25   47 1
  49   26   48 1
  50   26   49 1
  51   26   50 1
  52   27   28 1
  53   27   51 1
  54   27   52 1
  55   28   29 1
  56   28   53 1
  57   28   54 1
  58   29   30 1
  59   29   55 1
  60   29   56 1
  61   30   57 1
  62   30   58 1
  63   31   59 1
  64   31   60 1
  65   31   61 1

#	End of record

