#	Name: ASD01410258
#	Creating user name:	WinNT
#	Creation time:	15. 06. 2019 19:17

#	Modifying user name:	WinNT
#	Modification time:	15. 06. 2019 19:17

#	Program:	/corina/corina34_cracker 3.40 0067  02.08.2006

@<TRIPOS>MOLECULE
ASD01410258
  28   29    0    0    0
SMALL
NO_CHARGES


@<TRIPOS>ATOM
   1 C1            -0.3352     1.5093    -0.6986 C.ar    
   2 C2            -0.0872     0.1615    -0.5349 C.ar    
   3 C3            -1.0458    -0.6647     0.0325 C.ar    
   4 C4            -2.2574    -0.1485     0.4388 C.ar    
   5 C5            -2.5234     1.2144     0.2797 C.ar    
   6 C6            -1.5492     2.0489    -0.2890 C.ar    
   7 N7            -1.8011     3.4057    -0.4528 N.pl3   
   8 Br8            0.9807     2.6245    -1.4737 Br      
   9 C9            -3.8174     1.7727     0.7117 C.2     
  10 N10           -4.7929     0.9522     1.1495 N.am    
  11 O11           -4.0048     2.9737     0.6732 O.2     
  12 C12           -7.1807     0.8150     1.4840 C.ar    
  13 C13           -5.9787     1.4873     1.6635 C.ar    
  14 C14           -5.9562     2.6917     2.3548 C.ar    
  15 C15           -7.1284     3.2175     2.8616 C.ar    
  16 C16           -8.3244     2.5455     2.6812 C.ar    
  17 C17           -8.3498     1.3455     1.9930 C.ar    
  18 Br18          -0.6890    -2.5090     0.2491 Br      
  19 Br19          -9.9272     3.2683     3.3772 Br      
  20 H20            0.8589    -0.2524    -0.8509 H       
  21 H21           -3.0006    -0.7965     0.8794 H       
  22 H22           -2.7148     3.7252    -0.5158 H       
  23 H23           -1.0633     4.0333    -0.5040 H       
  24 H24           -4.6727    -0.0095     1.1081 H       
  25 H25           -7.2017    -0.1195     0.9430 H       
  26 H26           -5.0229     3.2165     2.4961 H       
  27 H27           -7.1115     4.1538     3.3995 H       
  28 H28           -9.2848     0.8233     1.8534 H       
@<TRIPOS>BOND
   1    1    2 ar
   2    1    8 1
   3    1    6 ar
   4    2    3 ar
   5    2   20 1
   6    3    4 ar
   7    3   18 1
   8    4    5 ar
   9    4   21 1
  10    5    6 ar
  11    5    9 1
  12    6    7 1
  13    7   22 1
  14    7   23 1
  15    9   10 am
  16    9   11 2
  17   10   13 1
  18   10   24 1
  19   12   13 ar
  20   12   17 ar
  21   12   25 1
  22   13   14 ar
  23   14   15 ar
  24   14   26 1
  25   15   16 ar
  26   15   27 1
  27   16   17 ar
  28   16   19 1
  29   17   28 1

#	End of record

