#	Name: ASD01150216
#	Creating user name:	WinNT
#	Creation time:	15. 06. 2019 19:03

#	Modifying user name:	WinNT
#	Modification time:	15. 06. 2019 19:03

#	Program:	/corina/corina34_cracker 3.40 0067  02.08.2006

@<TRIPOS>MOLECULE
ASD01150216
  54   58    0    0    0
SMALL
NO_CHARGES


@<TRIPOS>ATOM
   1 C1             0.1402     3.0599    -0.7607 C.ar    
   2 N2             0.5958     1.8165    -0.7274 N.ar    
   3 C3             1.8848     1.5869    -0.9059 C.ar    
   4 C4             2.7647     2.6379    -1.1280 C.ar    
   5 N5             2.3243     3.8810    -1.1633 N.ar    
   6 C6             1.0334     4.1227    -0.9859 C.ar    
   7 C7             0.4892     5.4960    -1.0165 C.2     
   8 N8            -0.8380     5.6616    -0.8277 N.am    
   9 C9            -1.6466     4.6112    -0.6169 C.2     
  10 N10           -1.1998     3.3447    -0.5731 N.am    
  11 C11           -1.4051     7.0122    -0.8529 C.3     
  12 O12            1.2165     6.4513    -1.2061 O.2     
  13 C13           -1.8132     7.3594    -2.2615 C.ar    
  14 C14           -3.0895     7.0650    -2.7035 C.ar    
  15 C15           -3.4643     7.3832    -3.9953 C.ar    
  16 C16           -2.5619     7.9965    -4.8459 C.ar    
  17 C17           -1.2847     8.2909    -4.4029 C.ar    
  18 C18           -0.9128     7.9773    -3.1092 C.ar    
  19 Cl19          -3.0318     8.3960    -6.4687 Cl      
  20 O20           -2.8336     4.8150    -0.4519 O.2     
  21 C21           -2.1460     2.2512    -0.3383 C.3     
  22 C22           -2.6775     1.7547    -1.6582 C.ar    
  23 C23           -2.0209     0.7357    -2.3256 C.ar    
  24 C24           -2.5018     0.2764    -3.5340 C.ar    
  25 C25           -3.6544     0.8423    -4.0838 C.ar    
  26 C26           -4.3120     1.8706    -3.4046 C.ar    
  27 C27           -3.8232     2.3162    -2.1943 C.ar    
  28 C28           -4.1752     0.3559    -5.3780 C.2     
  29 O29           -5.3446     0.5236    -5.6643 O.2     
  30 C30           -3.2747    -0.3343    -6.3243 C.ar    
  31 C31           -3.7996    -1.1933    -7.2927 C.ar    
  32 C32           -2.9531    -1.8344    -8.1728 C.ar    
  33 C33           -1.5866    -1.6283    -8.0981 C.ar    
  34 C34           -1.0597    -0.7791    -7.1409 C.ar    
  35 C35           -1.8950    -0.1266    -6.2584 C.ar    
  36 H36            2.2571     0.5735    -0.8785 H       
  37 H37            3.8159     2.4365    -1.2724 H       
  38 H38           -2.2782     7.0519    -0.2015 H       
  39 H39           -0.6589     7.7261    -0.5044 H       
  40 H40           -3.7938     6.5860    -2.0395 H       
  41 H41           -4.4614     7.1529    -4.3406 H       
  42 H42           -0.5798     8.7696    -5.0665 H       
  43 H43            0.0841     8.2070    -2.7633 H       
  44 H44           -1.6388     1.4366     0.1787 H       
  45 H45           -2.9727     2.6113     0.2740 H       
  46 H46           -1.1296     0.2993    -1.8995 H       
  47 H47           -1.9882    -0.5187    -4.0540 H       
  48 H48           -5.2035     2.3129    -3.8242 H       
  49 H49           -4.3306     3.1111    -1.6681 H       
  50 H50           -4.8657    -1.3553    -7.3519 H       
  51 H51           -3.3575    -2.4991    -8.9219 H       
  52 H52           -0.9284    -2.1330    -8.7898 H       
  53 H53            0.0077    -0.6231    -7.0880 H       
  54 H54           -1.4825     0.5362    -5.5121 H       
@<TRIPOS>BOND
   1    1    2 ar
   2    1    6 ar
   3    1   10 1
   4    2    3 ar
   5    3    4 ar
   6    3   36 1
   7    4    5 ar
   8    4   37 1
   9    5    6 ar
  10    6    7 1
  11    7    8 am
  12    7   12 2
  13    8    9 am
  14    8   11 1
  15    9   10 am
  16    9   20 2
  17   10   21 1
  18   11   13 1
  19   11   38 1
  20   11   39 1
  21   13   14 ar
  22   13   18 ar
  23   14   15 ar
  24   14   40 1
  25   15   16 ar
  26   15   41 1
  27   16   17 ar
  28   16   19 1
  29   17   18 ar
  30   17   42 1
  31   18   43 1
  32   21   22 1
  33   21   44 1
  34   21   45 1
  35   22   23 ar
  36   22   27 ar
  37   23   24 ar
  38   23   46 1
  39   24   25 ar
  40   24   47 1
  41   25   26 ar
  42   25   28 1
  43   26   27 ar
  44   26   48 1
  45   27   49 1
  46   28   29 2
  47   28   30 1
  48   30   31 ar
  49   30   35 ar
  50   31   32 ar
  51   31   50 1
  52   32   33 ar
  53   32   51 1
  54   33   34 ar
  55   33   52 1
  56   34   35 ar
  57   34   53 1
  58   35   54 1

#	End of record

