#	Name: ASD03331409
#	Creating user name:	WinNT
#	Creation time:	15. 06. 2019 20:39

#	Modifying user name:	WinNT
#	Modification time:	15. 06. 2019 20:39

#	Program:	/corina/corina34_cracker 3.40 0067  02.08.2006

@<TRIPOS>MOLECULE
ASD03331409
  82   87    0    0    0
SMALL
NO_CHARGES


@<TRIPOS>ATOM
   1 N1            -0.5857     1.8541    -1.1435 N.am    
   2 C2            -0.3497     0.4245    -1.3869 C.3     
   3 C3            -0.7958     0.0869    -2.8130 C.3     
   4 C4            -0.0862     1.0177    -3.7990 C.3     
   5 C5            -0.4734     2.4684    -3.5024 C.3     
   6 C6            -0.0237     2.8330    -2.0841 C.3     
   7 C7             1.4054     0.8571    -3.6565 C.2     
   8 O8             2.1041     1.8289    -3.4609 O.2     
   9 N9             1.9630    -0.3666    -3.7465 N.am    
  10 C10           -0.4967     0.6661    -5.2057 C.ar    
  11 C11           -0.0522     1.4318    -6.2673 C.ar    
  12 C12           -0.4288     1.1093    -7.5576 C.ar    
  13 C13           -1.2495     0.0207    -7.7865 C.ar    
  14 C14           -1.6932    -0.7456    -6.7250 C.ar    
  15 C15           -1.3131    -0.4256    -5.4350 C.ar    
  16 C16           -1.3086     2.2596    -0.0808 C.2     
  17 O17           -1.8527     1.4391     0.6334 O.2     
  18 N18           -2.2972     5.6697     0.7387 N.pl3   
  19 C19           -2.6013     4.3634     0.5415 C.2     
  20 C20           -1.4398     3.6964     0.2157 C.2     
  21 C21           -0.3942     4.6560     0.2200 C.2     
  22 C22           -0.9483     5.8524     0.5430 C.2     
  23 C23           -3.9716     3.7473     0.6582 C.3     
  24 C24           -4.6743     3.8053    -0.6996 C.3     
  25 C25           -6.0655     3.1798    -0.5811 C.3     
  26 N26           -6.7401     3.2355    -1.8849 N.3     
  27 C27           -7.9789     2.4359    -1.8735 C.3     
  28 C28           -9.1349     3.3782    -2.2698 C.3     
  29 C29           -8.4107     4.5177    -3.0340 C.3     
  30 C30           -7.0820     4.6280    -2.2454 C.3     
  31 C31           -0.2236     7.1358     0.6644 C.ar    
  32 C32            0.9383     7.2147     1.4357 C.ar    
  33 C33            1.6103     8.4156     1.5445 C.ar    
  34 C34            1.1345     9.5398     0.8909 C.ar    
  35 C35           -0.0169     9.4671     0.1254 C.ar    
  36 C36           -0.6943     8.2711     0.0043 C.ar    
  37 Cl37           1.9848    11.0466     1.0322 Cl      
  38 Cl38           1.5354     5.8061     2.2561 Cl      
  39 C39           -3.2121     6.6745     1.0815 C.ar    
  40 C40           -3.1580     7.2655     2.3367 C.ar    
  41 C41           -4.0605     8.2558     2.6718 C.ar    
  42 C42           -5.0181     8.6590     1.7578 C.ar    
  43 C43           -5.0744     8.0711     0.5063 C.ar    
  44 C44           -4.1705     7.0845     0.1643 C.ar    
  45 Cl45          -6.1511     9.9040     2.1821 Cl      
  46 H46            0.7120     0.2050    -1.2745 H       
  47 H47           -0.9246    -0.1672    -0.6745 H       
  48 H48           -0.5379    -0.9477    -3.0395 H       
  49 H49           -1.8742     0.2205    -2.8982 H       
  50 H50            0.0139     3.1289    -4.2197 H       
  51 H51           -1.5548     2.5796    -3.5811 H       
  52 H52           -0.3835     3.8305    -1.8318 H       
  53 H53            1.0646     2.8100    -2.0286 H       
  54 H54            1.4146    -1.1341    -3.9728 H       
  55 H55            2.9127    -0.4799    -3.5850 H       
  56 H56            0.5890     2.2823    -6.0885 H       
  57 H57           -0.0821     1.7079    -8.3870 H       
  58 H58           -1.5443    -0.2309    -8.7945 H       
  59 H59           -2.3347    -1.5959    -6.9037 H       
  60 H60           -1.6568    -1.0264    -4.6060 H       
  61 H61            0.6478     4.4693     0.0060 H       
  62 H62           -3.8772     2.7084     0.9743 H       
  63 H63           -4.5567     4.2991     1.3940 H       
  64 H64           -4.7687     4.8442    -1.0157 H       
  65 H65           -4.0892     3.2535    -1.4354 H       
  66 H66           -5.9711     2.1409    -0.2651 H       
  67 H67           -6.6506     3.7317     0.1546 H       
  68 H68           -7.9010     1.6213    -2.5934 H       
  69 H69           -8.1526     2.0356    -0.8746 H       
  70 H70           -9.8430     2.8664    -2.9216 H       
  71 H71           -9.6366     3.7667    -1.3836 H       
  72 H72           -8.2271     4.2370    -4.0711 H       
  73 H73           -8.9769     5.4473    -2.9771 H       
  74 H74           -7.2227     5.2290    -1.3470 H       
  75 H75           -6.3026     5.0596    -2.8735 H       
  76 H76            2.5086     8.4786     2.1407 H       
  77 H77           -0.3832    10.3474    -0.3817 H       
  78 H78           -1.5896     8.2150    -0.5971 H       
  79 H79           -2.4111     6.9509     3.0504 H       
  80 H80           -4.0191     8.7156     3.6482 H       
  81 H81           -5.8229     8.3873    -0.2052 H       
  82 H82           -4.2117     6.6294    -0.8142 H       
@<TRIPOS>BOND
   1    1    2 1
   2    1    6 1
   3    1   16 am
   4    2    3 1
   5    2   46 1
   6    2   47 1
   7    3    4 1
   8    3   48 1
   9    3   49 1
  10    4    5 1
  11    4    7 1
  12    4   10 1
  13    5    6 1
  14    5   50 1
  15    5   51 1
  16    6   52 1
  17    6   53 1
  18    7    8 2
  19    7    9 am
  20    9   54 1
  21    9   55 1
  22   10   11 ar
  23   10   15 ar
  24   11   12 ar
  25   11   56 1
  26   12   13 ar
  27   12   57 1
  28   13   14 ar
  29   13   58 1
  30   14   15 ar
  31   14   59 1
  32   15   60 1
  33   16   17 2
  34   16   20 1
  35   18   19 1
  36   18   22 1
  37   18   39 1
  38   19   20 2
  39   19   23 1
  40   20   21 1
  41   21   22 2
  42   21   61 1
  43   22   31 1
  44   23   24 1
  45   23   62 1
  46   23   63 1
  47   24   25 1
  48   24   64 1
  49   24   65 1
  50   25   26 1
  51   25   66 1
  52   25   67 1
  53   26   27 1
  54   26   30 1
  55   27   28 1
  56   27   68 1
  57   27   69 1
  58   28   29 1
  59   28   70 1
  60   28   71 1
  61   29   30 1
  62   29   72 1
  63   29   73 1
  64   30   74 1
  65   30   75 1
  66   31   32 ar
  67   31   36 ar
  68   32   33 ar
  69   32   38 1
  70   33   34 ar
  71   33   76 1
  72   34   35 ar
  73   34   37 1
  74   35   36 ar
  75   35   77 1
  76   36   78 1
  77   39   40 ar
  78   39   44 ar
  79   40   41 ar
  80   40   79 1
  81   41   42 ar
  82   41   80 1
  83   42   43 ar
  84   42   45 1
  85   43   44 ar
  86   43   81 1
  87   44   82 1

#	End of record

