#	Name: ASD07930804
#	Creating user name:	WinNT
#	Creation time:	15. 06. 2019 21:13

#	Modifying user name:	WinNT
#	Modification time:	15. 06. 2019 21:13

#	Program:	/corina/corina34_cracker 3.40 0067  02.08.2006

@<TRIPOS>MOLECULE
ASD07930804
  46   49    0    0    0
SMALL
NO_CHARGES


@<TRIPOS>ATOM
   1 C1             2.9822    -1.1904    -1.5120 C.3     
   2 N2             2.4692    -3.1035     0.7213 N.2     
   3 N3             0.4334    -3.4612    -0.3690 N.pl3   
   4 C4            -0.8882    -2.8328    -0.2711 C.3     
   5 C5            -0.9682    -1.6651    -1.2642 C.3     
   6 S6             0.4000    -0.5180    -0.9083 S.o2    
   7 N7             1.7217    -1.5309    -0.8476 N.am    
   8 C8             1.5694    -2.7130    -0.1370 C.2     
   9 C9            -1.1012    -2.3097     1.1508 C.3     
  10 C10           -1.9533    -3.8470    -0.6000 C.ar    
  11 C11           -2.7886    -3.6387    -1.6780 C.ar    
  12 C12           -3.7692    -4.5706    -1.9823 C.ar    
  13 C13           -3.9107    -5.7241    -1.1936 C.ar    
  14 C14           -3.0573    -5.9223    -0.1048 C.ar    
  15 C15           -2.0841    -4.9883     0.1807 C.ar    
  16 F16           -1.2589    -5.1795     1.2332 F       
  17 N17           -4.7401    -4.6560    -2.9678 N.pl3   
  18 C18           -5.4250    -5.8200    -2.7611 C.2     
  19 N19           -4.9355    -6.4449    -1.7185 N.2     
  20 S20           -6.7657    -6.3952    -3.7491 S.3     
  21 O21            0.6499     0.3296    -2.0211 O.2     
  22 O22            0.2898     0.0053     0.4083 O.2     
  23 C23           -7.0356    -7.9720    -3.0105 C.ar    
  24 C24           -7.8434    -8.0849    -1.8857 C.ar    
  25 C25           -8.0527    -9.3221    -1.3094 C.ar    
  26 C26           -7.4591   -10.4481    -1.8502 C.ar    
  27 C27           -6.6545   -10.3393    -2.9698 C.ar    
  28 C28           -6.4458    -9.1060    -3.5549 C.ar    
  29 H29            3.6174    -0.6338    -0.8229 H       
  30 H30            3.4908    -2.1049    -1.8169 H       
  31 H31            2.7762    -0.5790    -2.3906 H       
  32 H32            3.2617    -2.5648     0.8721 H       
  33 H33            0.5086    -4.4021    -0.5924 H       
  34 H34           -0.8761    -2.0421    -2.2828 H       
  35 H35           -1.9207    -1.1483    -1.1478 H       
  36 H36           -0.3315    -1.5748     1.3867 H       
  37 H37           -2.0835    -1.8428     1.2229 H       
  38 H38           -1.0403    -3.1387     1.8559 H       
  39 H39           -2.6792    -2.7512    -2.2837 H       
  40 H40           -3.1574    -6.8055     0.5085 H       
  41 H41           -4.9032    -4.0097    -3.6726 H       
  42 H42           -8.3067    -7.2059    -1.4624 H       
  43 H43           -8.6805    -9.4106    -0.4350 H       
  44 H44           -7.6240   -11.4144    -1.3971 H       
  45 H45           -6.1922   -11.2206    -3.3894 H       
  46 H46           -5.8176    -9.0219    -4.4294 H       
@<TRIPOS>BOND
   1    1    7 1
   2    1   29 1
   3    1   30 1
   4    1   31 1
   5    2    8 2
   6    2   32 1
   7    3    4 1
   8    3    8 1
   9    3   33 1
  10    4    5 1
  11    4    9 1
  12    4   10 1
  13    5    6 1
  14    5   34 1
  15    5   35 1
  16    6    7 am
  17    6   21 2
  18    6   22 2
  19    7    8 1
  20    9   36 1
  21    9   37 1
  22    9   38 1
  23   10   11 ar
  24   10   15 ar
  25   11   12 ar
  26   11   39 1
  27   12   13 ar
  28   12   17 1
  29   13   14 ar
  30   13   19 1
  31   14   15 ar
  32   14   40 1
  33   15   16 1
  34   17   18 1
  35   17   41 1
  36   18   19 2
  37   18   20 1
  38   20   23 1
  39   23   24 ar
  40   23   28 ar
  41   24   25 ar
  42   24   42 1
  43   25   26 ar
  44   25   43 1
  45   26   27 ar
  46   26   44 1
  47   27   28 ar
  48   27   45 1
  49   28   46 1

#	End of record

