#	Name: ASD01883367
#	Creating user name:	WinNT
#	Creation time:	15. 06. 2019 19:46

#	Modifying user name:	WinNT
#	Modification time:	15. 06. 2019 19:46

#	Program:	/corina/corina34_cracker 3.40 0067  02.08.2006

@<TRIPOS>MOLECULE
ASD01883367
  58   61    0    0    0
SMALL
NO_CHARGES


@<TRIPOS>ATOM
   1 N1             0.0021     1.3082    -0.0152 N.am    
   2 C2            -0.7518     1.3829     1.0973 C.2     
   3 C3            -1.9997     0.7182     1.1499 C.2     
   4 C4            -2.4239    -0.0108     0.0261 C.2     
   5 C5            -1.5912    -0.0513    -1.1076 C.2     
   6 C6            -0.4117     0.6073    -1.1028 C.2     
   7 O7            -0.3596     2.0222     2.0588 O.2     
   8 C8            -2.8143     0.7866     2.3257 C.1     
   9 N9            -3.4606     0.8409     3.2584 N.1     
  10 C10            1.2919     2.0017    -0.0562 C.3     
  11 C11            2.3909     1.0649     0.4490 C.3     
  12 C12            3.7380     1.7891     0.4061 C.3     
  13 N13           -3.6309    -0.6732     0.0341 N.pl3   
  14 C14           -4.8964     0.0654     0.1606 C.3     
  15 C15           -5.8354    -0.3813    -0.9650 C.3     
  16 N16           -5.9647    -1.8444    -0.9388 N.3     
  17 C17           -4.6754    -2.4981    -1.1997 C.3     
  18 C18           -3.6892    -2.1376    -0.0898 C.3     
  19 C19            4.8160     0.8982     1.0266 C.3     
  20 C20            4.1052     2.0975    -1.0468 C.3     
  21 C21           -6.9877    -2.2996    -1.8897 C.3     
  22 C22           -6.9236    -3.7998    -2.0165 C.ar    
  23 C23           -7.6801    -4.5959    -1.1768 C.ar    
  24 C24           -7.6231    -5.9754    -1.2918 C.ar    
  25 C25           -6.8022    -6.5568    -2.2549 C.ar    
  26 C26           -6.0466    -5.7528    -3.0928 C.ar    
  27 C27           -6.1128    -4.3769    -2.9761 C.ar    
  28 O28           -8.2559    -6.9681    -0.6010 O.3     
  29 C29           -8.1279    -8.1469    -1.4180 C.3     
  30 O30           -6.9208    -7.9139    -2.1676 O.3     
  31 H31           -1.8967    -0.6057    -1.9826 H       
  32 H32            0.2190     0.5690    -1.9787 H       
  33 H33            1.5116     2.3000    -1.0814 H       
  34 H34            1.2488     2.8869     0.5784 H       
  35 H35            2.1712     0.7666     1.4741 H       
  36 H36            2.4340     0.1797    -0.1856 H       
  37 H37            3.6680     2.7202     0.9686 H       
  38 H38           -5.3527    -0.1526     1.1262 H       
  39 H39           -4.7061     1.1353     0.0757 H       
  40 H40           -6.8159     0.0731    -0.8226 H       
  41 H41           -5.4256    -0.0696    -1.9257 H       
  42 H42           -4.8145    -3.5788    -1.2275 H       
  43 H43           -4.2817    -2.1568    -2.1571 H       
  44 H44           -2.7011    -2.5253    -0.3378 H       
  45 H45           -4.0273    -2.5657     0.8538 H       
  46 H46            4.8860    -0.0328     0.4641 H       
  47 H47            5.7757     1.4142     0.9961 H       
  48 H48            4.5544     0.6786     2.0617 H       
  49 H49            5.0649     2.6134    -1.0773 H       
  50 H50            4.1752     1.1664    -1.6093 H       
  51 H51            3.3372     2.7322    -1.4888 H       
  52 H52           -7.9742    -2.0072    -1.5297 H       
  53 H53           -6.8067    -1.8446    -2.8635 H       
  54 H54           -8.3155    -4.1423    -0.4306 H       
  55 H55           -5.4092    -6.2010    -3.8406 H       
  56 H56           -5.5233    -3.7517    -3.6303 H       
  57 H57           -8.0263    -9.0355    -0.7950 H       
  58 H58           -8.9822    -8.2431    -2.0880 H       
@<TRIPOS>BOND
   1    1    2 am
   2    1   10 1
   3    1    6 1
   4    2    3 1
   5    2    7 2
   6    3    4 2
   7    3    8 1
   8    4    5 1
   9    4   13 1
  10    5    6 2
  11    5   31 1
  12    6   32 1
  13    8    9 3
  14   10   11 1
  15   10   33 1
  16   10   34 1
  17   11   12 1
  18   11   35 1
  19   11   36 1
  20   12   19 1
  21   12   20 1
  22   12   37 1
  23   13   14 1
  24   13   18 1
  25   14   15 1
  26   14   38 1
  27   14   39 1
  28   15   16 1
  29   15   40 1
  30   15   41 1
  31   16   17 1
  32   16   21 1
  33   17   18 1
  34   17   42 1
  35   17   43 1
  36   18   44 1
  37   18   45 1
  38   19   46 1
  39   19   47 1
  40   19   48 1
  41   20   49 1
  42   20   50 1
  43   20   51 1
  44   21   22 1
  45   21   52 1
  46   21   53 1
  47   22   23 ar
  48   22   27 ar
  49   23   24 ar
  50   23   54 1
  51   24   25 ar
  52   24   28 1
  53   25   26 ar
  54   25   30 1
  55   26   27 ar
  56   26   55 1
  57   27   56 1
  58   28   29 1
  59   29   30 1
  60   29   57 1
  61   29   58 1

#	End of record

