#	Name: ASD03240509
#	Creating user name:	WinNT
#	Creation time:	15. 06. 2019 20:35

#	Modifying user name:	WinNT
#	Modification time:	15. 06. 2019 20:35

#	Program:	/corina/corina34_cracker 3.40 0067  02.08.2006

@<TRIPOS>MOLECULE
ASD03240509
  50   53    0    0    0
SMALL
NO_CHARGES


@<TRIPOS>ATOM
   1 C1             0.9275    -0.2298    -1.0049 C.ar    
   2 C2             0.0035    -0.0066    -0.0001 C.ar    
   3 C3             2.1176     0.4692    -1.0192 C.ar    
   4 C4             2.3875     1.4006    -0.0191 C.ar    
   5 C5             1.4535     1.6215     0.9905 C.ar    
   6 C6             0.2663     0.9175     0.9950 C.ar    
   7 C7             3.6663     2.1550    -0.0291 C.2     
   8 C8             3.8066     3.5016    -0.1973 C.2     
   9 N9             5.1237     3.7846    -0.1418 N.pl3   
  10 N10            5.8200     2.5877     0.0657 N.2     
  11 C11            4.9546     1.6114     0.1394 C.2     
  12 C12           -1.2942    -0.7726     0.0103 C.3     
  13 C13           -2.1540    -0.3224    -1.1426 C.ar    
  14 C14           -2.6361     0.9726    -1.1808 C.ar    
  15 C15           -3.4248     1.3855    -2.2383 C.ar    
  16 C16           -3.7310     0.5037    -3.2578 C.ar    
  17 C17           -3.2481    -0.7911    -3.2201 C.ar    
  18 C18           -2.4558    -1.2027    -2.1647 C.ar    
  19 C19            2.6914     4.4933    -0.4072 C.3     
  20 C20            5.2792     0.1559     0.3569 C.3     
  21 C21           -1.0053    -2.2705    -0.1212 C.3     
  22 C22           -0.1821    -2.7339     1.0828 C.3     
  23 N23           -0.9283    -2.4678     2.3192 N.3     
  24 C24           -1.1762    -1.0306     2.4909 C.3     
  25 C25           -2.0299    -0.5151     1.3283 C.3     
  26 H26            0.7192    -0.9554    -1.7772 H       
  27 H27            2.8385     0.2939    -1.8040 H       
  28 H28            1.6579     2.3425     1.7682 H       
  29 H29           -0.4586     1.0882     1.7772 H       
  30 H30            5.5204     4.6653    -0.2305 H       
  31 H31           -2.3969     1.6616    -0.3843 H       
  32 H32           -3.8021     2.3971    -2.2678 H       
  33 H33           -4.3477     0.8261    -4.0837 H       
  34 H34           -3.4875    -1.4802    -4.0164 H       
  35 H35           -2.0785    -2.2143    -2.1352 H       
  36 H36            2.3508     4.8668     0.5586 H       
  37 H37            3.0538     5.3251    -1.0112 H       
  38 H38            1.8631     4.0052    -0.9206 H       
  39 H39            5.2903    -0.0581     1.4256 H       
  40 H40            4.5240    -0.4614    -0.1295 H       
  41 H41            6.2583    -0.0654    -0.0681 H       
  42 H42           -1.9455    -2.8211    -0.1528 H       
  43 H43           -0.4446    -2.4539    -1.0377 H       
  44 H44            0.0132    -3.8031     0.9994 H       
  45 H45            0.7639    -2.1929     1.1059 H       
  46 H46           -1.7922    -2.9887     2.3394 H       
  47 H47           -1.7030    -0.8627     3.4303 H       
  48 H48           -0.2256    -0.4976     2.5074 H       
  49 H49           -2.2002     0.5548     1.4484 H       
  50 H50           -2.9863    -1.0378     1.3194 H       
@<TRIPOS>BOND
   1    1    2 ar
   2    1    3 ar
   3    1   26 1
   4    2   12 1
   5    2    6 ar
   6    3    4 ar
   7    3   27 1
   8    4    5 ar
   9    4    7 1
  10    5    6 ar
  11    5   28 1
  12    6   29 1
  13    7    8 2
  14    7   11 1
  15    8    9 1
  16    8   19 1
  17    9   10 1
  18    9   30 1
  19   10   11 2
  20   11   20 1
  21   12   13 1
  22   12   21 1
  23   12   25 1
  24   13   14 ar
  25   13   18 ar
  26   14   15 ar
  27   14   31 1
  28   15   16 ar
  29   15   32 1
  30   16   17 ar
  31   16   33 1
  32   17   18 ar
  33   17   34 1
  34   18   35 1
  35   19   36 1
  36   19   37 1
  37   19   38 1
  38   20   39 1
  39   20   40 1
  40   20   41 1
  41   21   22 1
  42   21   42 1
  43   21   43 1
  44   22   23 1
  45   22   44 1
  46   22   45 1
  47   23   24 1
  48   23   46 1
  49   24   25 1
  50   24   47 1
  51   24   48 1
  52   25   49 1
  53   25   50 1

#	End of record

