#	Name: ASD03240778
#	Creating user name:	WinNT
#	Creation time:	15. 06. 2019 20:35

#	Modifying user name:	WinNT
#	Modification time:	15. 06. 2019 20:35

#	Program:	/corina/corina34_cracker 3.40 0067  02.08.2006

@<TRIPOS>MOLECULE
ASD03240778
  77   83    0    0    0
SMALL
NO_CHARGES


@<TRIPOS>ATOM
   1 C1            -0.0144     1.2086     0.0087 C.2     
   2 O2             0.1303     0.0422     0.3079 O.2     
   3 N3             1.0551     1.9546    -0.3320 N.am    
   4 C4             2.4131     1.4009    -0.2428 C.3     
   5 C5             3.1077     1.5777    -1.5967 C.3     
   6 C6             3.0556     3.0522    -2.0035 C.3     
   7 C7             1.5969     3.4920    -2.1479 C.3     
   8 C8             0.8848     3.3350    -0.8055 C.3     
   9 N9            -3.9995     2.0555     1.2281 N.3     
  10 C10           -3.8400     1.3404    -0.0446 C.3     
  11 C11           -2.4438     0.7172    -0.1096 C.3     
  12 C12           -1.3908     1.8221     0.0118 C.3     
  13 C13           -1.6091     2.5825     1.3228 C.3     
  14 C14           -3.0295     3.1517     1.3463 C.3     
  15 C15           -5.3739     2.5494     1.3858 C.3     
  16 C16           -5.5673     3.0564     2.7917 C.ar    
  17 C17           -5.3025     4.3814     3.0887 C.ar    
  18 C18           -5.4780     4.8517     4.3740 C.ar    
  19 C19           -5.9235     3.9881     5.3747 C.ar    
  20 C20           -6.1888     2.6533     5.0689 C.ar    
  21 C21           -6.0144     2.1963     3.7788 C.ar    
  22 C22           -4.7186     7.3205    10.2270 C.2     
  23 N23           -5.6977     6.8779    11.0357 N.2     
  24 C24           -6.5564     5.9687    10.6523 C.2     
  25 C25           -6.4507     5.4160     9.3035 C.ar    
  26 C26           -5.4207     5.8844     8.4599 C.ar    
  27 N27           -4.5604     6.8466     8.9529 N.pl3   
  28 C28           -7.3389     4.4422     8.8359 C.ar    
  29 C29           -7.1648     3.9707     7.5386 C.ar    
  30 C30           -6.1135     4.4863     6.7563 C.ar    
  31 N31           -5.2917     5.4092     7.2336 N.ar    
  32 N32           -3.4625     7.5034     8.3840 N.2     
  33 C33           -2.9684     8.3407     9.2641 C.2     
  34 C34           -3.7159     8.2585    10.4321 C.2     
  35 C35           -8.0744     2.9380     6.9868 C.ar    
  36 C36           -8.3347     1.7758     7.7112 C.ar    
  37 C37           -9.1825     0.8182     7.1928 C.ar    
  38 C38           -9.7733     1.0098     5.9567 C.ar    
  39 C39           -9.5183     2.1610     5.2332 C.ar    
  40 C40           -8.6771     3.1282     5.7444 C.ar    
  41 C41           -1.7799     9.2413     9.0458 C.3     
  42 H42            2.9738     1.9305     0.5275 H       
  43 H43            2.3599     0.3408     0.0049 H       
  44 H44            4.1469     1.2589    -1.5168 H       
  45 H45            2.5983     0.9747    -2.3484 H       
  46 H46            3.5434     3.6572    -1.2393 H       
  47 H47            3.5707     3.1848    -2.9549 H       
  48 H48            1.5608     4.5357    -2.4603 H       
  49 H49            1.1017     2.8710    -2.8943 H       
  50 H50           -0.1765     3.5506    -0.9290 H       
  51 H51            1.3183     4.0256    -0.0821 H       
  52 H52           -4.5922     0.5547    -0.1164 H       
  53 H53           -3.9648     2.0391    -0.8719 H       
  54 H54           -2.3234     0.0081     0.7094 H       
  55 H55           -2.3203     0.1996    -1.0609 H       
  56 H56           -1.4853     2.5093    -0.8290 H       
  57 H57           -1.4755     1.9028     2.1644 H       
  58 H58           -0.8892     3.3977     1.3949 H       
  59 H59           -3.1580     3.8419     0.5125 H       
  60 H60           -3.1930     3.6816     2.2847 H       
  61 H61           -5.5519     3.3603     0.6794 H       
  62 H62           -6.0759     1.7384     1.1922 H       
  63 H63           -4.9573     5.0490     2.3131 H       
  64 H64           -5.2706     5.8862     4.6047 H       
  65 H65           -6.5336     1.9798     5.8396 H       
  66 H66           -6.2234     1.1640     3.5399 H       
  67 H67           -7.3328     5.6313    11.3230 H       
  68 H68           -8.1347     4.0674     9.4625 H       
  69 H69           -3.5483     8.8242    11.3368 H       
  70 H70           -7.8734     1.6248     8.6760 H       
  71 H71           -9.3849    -0.0826     7.7530 H       
  72 H72          -10.4359     0.2576     5.5548 H       
  73 H73           -9.9821     2.3051     4.2686 H       
  74 H74           -8.4823     4.0286     5.1807 H       
  75 H75           -2.1168    10.1960     8.6419 H       
  76 H76           -1.2709     9.4077     9.9952 H       
  77 H77           -1.0924     8.7715     8.3424 H       
@<TRIPOS>BOND
   1    1    2 2
   2    1    3 am
   3    1   12 1
   4    3    4 1
   5    3    8 1
   6    4    5 1
   7    4   42 1
   8    4   43 1
   9    5    6 1
  10    5   44 1
  11    5   45 1
  12    6    7 1
  13    6   46 1
  14    6   47 1
  15    7    8 1
  16    7   48 1
  17    7   49 1
  18    8   50 1
  19    8   51 1
  20    9   10 1
  21    9   14 1
  22    9   15 1
  23   10   11 1
  24   10   52 1
  25   10   53 1
  26   11   12 1
  27   11   54 1
  28   11   55 1
  29   12   13 1
  30   12   56 1
  31   13   14 1
  32   13   57 1
  33   13   58 1
  34   14   59 1
  35   14   60 1
  36   15   16 1
  37   15   61 1
  38   15   62 1
  39   16   17 ar
  40   16   21 ar
  41   17   18 ar
  42   17   63 1
  43   18   19 ar
  44   18   64 1
  45   19   20 ar
  46   19   30 1
  47   20   21 ar
  48   20   65 1
  49   21   66 1
  50   22   23 1
  51   22   27 1
  52   22   34 2
  53   23   24 2
  54   24   25 1
  55   24   67 1
  56   25   26 ar
  57   25   28 ar
  58   26   27 1
  59   26   31 ar
  60   27   32 1
  61   28   29 ar
  62   28   68 1
  63   29   30 ar
  64   29   35 1
  65   30   31 ar
  66   32   33 2
  67   33   34 1
  68   33   41 1
  69   34   69 1
  70   35   36 ar
  71   35   40 ar
  72   36   37 ar
  73   36   70 1
  74   37   38 ar
  75   37   71 1
  76   38   39 ar
  77   38   72 1
  78   39   40 ar
  79   39   73 1
  80   40   74 1
  81   41   75 1
  82   41   76 1
  83   41   77 1

#	End of record

