#	Name: ASD04590795
#	Creating user name:	WinNT
#	Creation time:	15. 06. 2019 20:51

#	Modifying user name:	WinNT
#	Modification time:	15. 06. 2019 20:51

#	Program:	/corina/corina34_cracker 3.40 0067  02.08.2006

@<TRIPOS>MOLECULE
ASD04590795
  27   28    0    0    0
SMALL
NO_CHARGES


@<TRIPOS>ATOM
   1 N1            -0.0179     1.4661     0.0101 N.3     
   2 C2             0.0021    -0.0041     0.0020 C.3     
   3 C3             0.7517    -0.4916    -1.2407 C.3     
   4 O4             2.0682     0.0669    -1.2476 O.3     
   5 C5             2.0869     1.4971    -1.2404 C.3     
   6 C6             1.3489     2.0053    -0.0001 C.3     
   7 C7             1.2950     3.5345    -0.0263 C.3     
   8 C8             0.6086     4.0375     1.2458 C.3     
   9 N9             1.3555     3.5742     2.4222 N.3     
  10 C10            1.3789     2.1078     2.4938 C.3     
  11 C11            2.0885     1.5469     1.2591 C.3     
  12 H12           -0.5538     1.8247    -0.7659 H       
  13 H13            0.5074    -0.3662     0.8973 H       
  14 H14           -1.0202    -0.3819    -0.0179 H       
  15 H15            0.8180    -1.5794    -1.2223 H       
  16 H16            0.2171    -0.1742    -2.1360 H       
  17 H17            3.1188     1.8476    -1.2190 H       
  18 H18            1.5930     1.8721    -2.1368 H       
  19 H19            2.3082     3.9336    -0.0753 H       
  20 H20            0.7309     3.8638    -0.8988 H       
  21 H21            0.5827     5.1272     1.2380 H       
  22 H22           -0.4096     3.6504     1.2865 H       
  23 H23            2.2913     3.9515     2.4280 H       
  24 H24            1.9123     1.7964     3.3919 H       
  25 H25            0.3573     1.7295     2.5287 H       
  26 H26            2.0905     0.4578     1.3038 H       
  27 H27            3.1149     1.9126     1.2317 H       
@<TRIPOS>BOND
   1    1    2 1
   2    1    6 1
   3    1   12 1
   4    2    3 1
   5    2   13 1
   6    2   14 1
   7    3    4 1
   8    3   15 1
   9    3   16 1
  10    4    5 1
  11    5    6 1
  12    5   17 1
  13    5   18 1
  14    6    7 1
  15    6   11 1
  16    7    8 1
  17    7   19 1
  18    7   20 1
  19    8    9 1
  20    8   21 1
  21    8   22 1
  22    9   10 1
  23    9   23 1
  24   10   11 1
  25   10   24 1
  26   10   25 1
  27   11   26 1
  28   11   27 1

#	End of record

