#	Name: ASD01028778
#	Creating user name:	WinNT
#	Creation time:	15. 06. 2019 18:58

#	Modifying user name:	WinNT
#	Modification time:	15. 06. 2019 18:58

#	Program:	/corina/corina34_cracker 3.40 0067  02.08.2006

@<TRIPOS>MOLECULE
ASD01028778
  39   42    0    0    0
SMALL
NO_CHARGES


@<TRIPOS>ATOM
   1 N1             0.3566     1.4209     0.3570 N.ar    
   2 C2             0.3157     0.1263     0.1775 C.ar    
   3 C3             1.4470    -0.6821     0.4071 C.ar    
   4 C4             2.6335    -0.0940     0.8333 C.ar    
   5 C5             2.6512     1.2995     1.0183 C.ar    
   6 N6             3.7596     1.9251     1.4267 N.ar    
   7 C7             3.7839     3.2248     1.6020 C.ar    
   8 C8             2.6600     4.0132     1.3719 C.ar    
   9 C9             1.4932     3.4356     0.9525 C.ar    
  10 C10            1.4690     2.0390     0.7652 C.ar    
  11 N11            1.3789    -2.0308     0.2135 N.2     
  12 C12            0.4812    -2.7417     0.8555 C.2     
  13 C13            0.3078    -4.1752     0.5376 C.ar    
  14 C14            0.9687    -4.7355    -0.5572 C.ar    
  15 C15            0.8026    -6.0736    -0.8483 C.ar    
  16 C16           -0.0169    -6.8602    -0.0580 C.ar    
  17 C17           -0.6748    -6.3112     1.0286 C.ar    
  18 C18           -0.5129    -4.9758     1.3342 C.ar    
  19 C19           -0.3566    -2.1087     1.8965 C.ar    
  20 C20           -1.7302    -2.3555     1.9369 C.ar    
  21 C21           -2.5060    -1.7617     2.9108 C.ar    
  22 C22           -1.9258    -0.9232     3.8462 C.ar    
  23 C23           -0.5650    -0.6744     3.8118 C.ar    
  24 C24            0.2233    -1.2662     2.8468 C.ar    
  25 Cl25           0.0783     4.3980     0.6595 Cl      
  26 H26           -0.6041    -0.3330    -0.1533 H       
  27 H27            3.5150    -0.6904     1.0170 H       
  28 H28            4.6982     3.6946     1.9333 H       
  29 H29            2.7092     5.0811     1.5249 H       
  30 H30            1.6083    -4.1226    -1.1751 H       
  31 H31            1.3129    -6.5082    -1.6950 H       
  32 H32           -0.1438    -7.9072    -0.2904 H       
  33 H33           -1.3132    -6.9306     1.6411 H       
  34 H34           -1.0232    -4.5497     2.1853 H       
  35 H35           -2.1844    -3.0095     1.2073 H       
  36 H36           -3.5687    -1.9515     2.9430 H       
  37 H37           -2.5378    -0.4606     4.6063 H       
  38 H38           -0.1185    -0.0186     4.5446 H       
  39 H39            1.2860    -1.0750     2.8240 H       
@<TRIPOS>BOND
   1    1    2 ar
   2    1   10 ar
   3    2    3 ar
   4    2   26 1
   5    3    4 ar
   6    3   11 1
   7    4    5 ar
   8    4   27 1
   9    5    6 ar
  10    5   10 ar
  11    6    7 ar
  12    7    8 ar
  13    7   28 1
  14    8    9 ar
  15    8   29 1
  16    9   10 ar
  17    9   25 1
  18   11   12 2
  19   12   13 1
  20   12   19 1
  21   13   14 ar
  22   13   18 ar
  23   14   15 ar
  24   14   30 1
  25   15   16 ar
  26   15   31 1
  27   16   17 ar
  28   16   32 1
  29   17   18 ar
  30   17   33 1
  31   18   34 1
  32   19   20 ar
  33   19   24 ar
  34   20   21 ar
  35   20   35 1
  36   21   22 ar
  37   21   36 1
  38   22   23 ar
  39   22   37 1
  40   23   24 ar
  41   23   38 1
  42   24   39 1

#	End of record

