#	Name: ASD03320112
#	Creating user name:	WinNT
#	Creation time:	15. 06. 2019 20:36

#	Modifying user name:	WinNT
#	Modification time:	15. 06. 2019 20:36

#	Program:	/corina/corina34_cracker 3.40 0067  02.08.2006

@<TRIPOS>MOLECULE
ASD03320112
  45   47    0    0    0
SMALL
NO_CHARGES


@<TRIPOS>ATOM
   1 C1            -0.0181     1.4706     0.0147 C.2     
   2 C2             0.0015    -0.0045     0.0116 C.ar    
   3 C3             1.2205    -0.7002     0.0010 C.ar    
   4 C4             1.1912    -2.0690    -0.0015 C.ar    
   5 C5            -0.0388    -2.7267     0.0064 C.ar    
   6 N6            -1.1757    -2.0449     0.0159 N.ar    
   7 C7            -1.1918    -0.7281     0.0250 C.ar    
   8 O8             1.0269     2.0925     0.0080 O.2     
   9 N9            -1.1941     2.1289     0.0193 N.am    
  10 N10           -0.0728    -4.1113     0.0039 N.3     
  11 C11           -1.4661    -4.6073     0.0134 C.3     
  12 C12           -1.4770    -5.9082     0.8374 C.3     
  13 C13           -0.0186    -6.0958     1.3149 C.3     
  14 C14            0.5613    -4.6616     1.2292 C.3     
  15 C15           -1.9051    -7.0877    -0.0379 C.3     
  16 O16           -2.0216    -8.2617     0.7685 O.3     
  17 C17           -1.2149     3.5245     0.1327 C.ar    
  18 C18           -2.1835     4.2615    -0.5365 C.ar    
  19 C19           -2.2030     5.6390    -0.4239 C.ar    
  20 C20           -1.2537     6.2851     0.3585 C.ar    
  21 C21           -0.2872     5.5488     1.0255 C.ar    
  22 C22           -0.2708     4.1714     0.9185 C.ar    
  23 O23           -1.2727     7.6407     0.4695 O.3     
  24 C24           -0.2672     8.2386     1.2902 C.3     
  25 F25            0.9977     7.9205     0.7842 F       
  26 F26           -0.4326     9.6277     1.2929 F       
  27 F27           -0.3823     7.7527     2.5971 F       
  28 F28           -3.1444     6.3569    -1.0747 F       
  29 Br29           2.8026    -3.0584    -0.0163 Br      
  30 H30            2.1602    -0.1679    -0.0053 H       
  31 H31           -2.1360    -0.2040     0.0381 H       
  32 H32           -2.0262     1.6360    -0.0560 H       
  33 H33           -2.1201    -3.8687     0.4770 H       
  34 H34           -1.7949    -4.8106    -1.0058 H       
  35 H35           -2.1452    -5.8087     1.6928 H       
  36 H36            0.0071    -6.4616     2.3414 H       
  37 H37            0.5211    -6.7704     0.6503 H       
  38 H38            1.6455    -4.6909     1.1213 H       
  39 H39            0.2763    -4.0785     2.1049 H       
  40 H40           -2.8675    -6.8671    -0.4996 H       
  41 H41           -1.1588    -7.2533    -0.8149 H       
  42 H42           -2.2904    -9.0506     0.2781 H       
  43 H43           -2.9207     3.7586    -1.1447 H       
  44 H44            0.4505     6.0517     1.6332 H       
  45 H45            0.4797     3.5981     1.4424 H       
@<TRIPOS>BOND
   1    1    2 1
   2    1    8 2
   3    1    9 am
   4    2    3 ar
   5    2    7 ar
   6    3    4 ar
   7    3   30 1
   8    4    5 ar
   9    4   29 1
  10    5    6 ar
  11    5   10 1
  12    6    7 ar
  13    7   31 1
  14    9   17 1
  15    9   32 1
  16   10   11 1
  17   10   14 1
  18   11   12 1
  19   11   33 1
  20   11   34 1
  21   12   13 1
  22   12   15 1
  23   12   35 1
  24   13   14 1
  25   13   36 1
  26   13   37 1
  27   14   38 1
  28   14   39 1
  29   15   16 1
  30   15   40 1
  31   15   41 1
  32   16   42 1
  33   17   18 ar
  34   17   22 ar
  35   18   19 ar
  36   18   43 1
  37   19   20 ar
  38   19   28 1
  39   20   21 ar
  40   20   23 1
  41   21   22 ar
  42   21   44 1
  43   22   45 1
  44   23   24 1
  45   24   25 1
  46   24   26 1
  47   24   27 1

#	End of record

