#	Name: ASD01914969
#	Creating user name:	WinNT
#	Creation time:	15. 06. 2019 20:04

#	Modifying user name:	WinNT
#	Modification time:	15. 06. 2019 20:04

#	Program:	/corina/corina34_cracker 3.40 0067  02.08.2006

@<TRIPOS>MOLECULE
ASD01914969
  61   64    0    0    0
SMALL
NO_CHARGES


@<TRIPOS>ATOM
   1 C1            -0.0158     1.3120     0.0093 C.2     
   2 N2             0.0021    -0.0041     0.0020 N.2     
   3 C3             1.3183     1.7637    -0.0011 C.2     
   4 C4             2.1227     0.6785    -0.0146 C.2     
   5 N5             1.3391    -0.4213    -0.0130 N.pl3   
   6 C6            -1.2277     2.1688     0.0199 C.ar    
   7 C7            -1.1060     3.5534    -0.0787 C.ar    
   8 C8            -2.2361     4.3453    -0.0683 C.ar    
   9 C9            -3.4881     3.7669     0.0399 C.ar    
  10 C10           -3.6147     2.3932     0.1381 C.ar    
  11 C11           -2.4912     1.5913     0.1229 C.ar    
  12 C12            3.6295     0.6928    -0.0298 C.3     
  13 C13            1.8064    -1.8097    -0.0242 C.3     
  14 C14            1.9794    -2.2929     1.3927 C.2     
  15 N15            2.4043    -3.5500     1.6289 N.am    
  16 O16            1.7364    -1.5506     2.3205 O.2     
  17 C17            2.7072    -4.4742     0.5268 C.3     
  18 C18            2.1389    -5.8285     0.8483 C.2     
  19 C19            1.6697    -6.1533     2.0293 C.2     
  20 C20            1.6195    -5.2239     3.2055 C.3     
  21 C21            2.5895    -4.0508     3.0018 C.3     
  22 C22            4.1530     0.8157     1.4026 C.3     
  23 C23            1.1559    -7.5261     2.2131 C.ar    
  24 C24            1.1748    -8.4380     1.1564 C.ar    
  25 C25           -4.7186     4.6369     0.0513 C.3     
  26 C26            0.6790    -9.7177     1.3829 C.ar    
  27 N27            0.2085   -10.0242     2.5876 N.ar    
  28 C28            0.2067    -9.1364     3.5618 C.ar    
  29 N29            0.6710    -7.9163     3.3937 N.ar    
  30 C30           -4.9818     1.7704     0.2562 C.3     
  31 O31            0.6751   -10.6391     0.3889 O.3     
  32 C32            0.1488   -11.9300     0.7029 C.3     
  33 H33            1.6407     2.7944     0.0011 H       
  34 H34           -0.1290     4.0060    -0.1629 H       
  35 H35           -2.1429     5.4186    -0.1443 H       
  36 H36           -2.5911     0.5186     0.1996 H       
  37 H37            3.9972    -0.2327    -0.4729 H       
  38 H38            3.9789     1.5412    -0.6184 H       
  39 H39            1.0741    -2.4354    -0.5345 H       
  40 H40            2.7611    -1.8676    -0.5470 H       
  41 H41            2.2604    -4.1011    -0.3948 H       
  42 H42            3.7874    -4.5523     0.4034 H       
  43 H43            2.1155    -6.5726     0.0659 H       
  44 H44            0.6055    -4.8404     3.3189 H       
  45 H45            1.8989    -5.7685     4.1074 H       
  46 H46            3.6153    -4.3925     3.1398 H       
  47 H47            2.3650    -3.2586     3.7160 H       
  48 H48            3.7853     1.7413     1.8456 H       
  49 H49            3.8036    -0.0326     1.9911 H       
  50 H50            5.2428     0.8260     1.3915 H       
  51 H51            1.5638    -8.1574     0.1887 H       
  52 H52           -5.0725     4.7791    -0.9698 H       
  53 H53           -5.4981     4.1561     0.6424 H       
  54 H54           -4.4752     5.6048     0.4896 H       
  55 H55           -0.1835    -9.4198     4.5281 H       
  56 H56           -5.3689     1.5523    -0.7392 H       
  57 H57           -4.9116     0.8459     0.8293 H       
  58 H58           -5.6538     2.4624     0.7638 H       
  59 H59            0.7312   -12.3731     1.5107 H       
  60 H60           -0.8908   -11.8322     1.0156 H       
  61 H61            0.2046   -12.5692    -0.1782 H       
@<TRIPOS>BOND
   1    1    2 2
   2    1    3 1
   3    1    6 1
   4    2    5 1
   5    3    4 2
   6    3   33 1
   7    4    5 1
   8    4   12 1
   9    5   13 1
  10    6    7 ar
  11    6   11 ar
  12    7    8 ar
  13    7   34 1
  14    8    9 ar
  15    8   35 1
  16    9   10 ar
  17    9   25 1
  18   10   11 ar
  19   10   30 1
  20   11   36 1
  21   12   22 1
  22   12   37 1
  23   12   38 1
  24   13   14 1
  25   13   39 1
  26   13   40 1
  27   14   15 am
  28   14   16 2
  29   15   17 1
  30   15   21 1
  31   17   18 1
  32   17   41 1
  33   17   42 1
  34   18   19 2
  35   18   43 1
  36   19   20 1
  37   19   23 1
  38   20   21 1
  39   20   44 1
  40   20   45 1
  41   21   46 1
  42   21   47 1
  43   22   48 1
  44   22   49 1
  45   22   50 1
  46   23   24 ar
  47   23   29 ar
  48   24   26 ar
  49   24   51 1
  50   25   52 1
  51   25   53 1
  52   25   54 1
  53   26   27 ar
  54   26   31 1
  55   27   28 ar
  56   28   29 ar
  57   28   55 1
  58   30   56 1
  59   30   57 1
  60   30   58 1
  61   31   32 1
  62   32   59 1
  63   32   60 1
  64   32   61 1

#	End of record

