#	Name: ASD01884922
#	Creating user name:	WinNT
#	Creation time:	15. 06. 2019 19:49

#	Modifying user name:	WinNT
#	Modification time:	15. 06. 2019 19:49

#	Program:	/corina/corina34_cracker 3.40 0067  02.08.2006

@<TRIPOS>MOLECULE
ASD01884922
  45   48    0    0    0
SMALL
NO_CHARGES


@<TRIPOS>ATOM
   1 C1            -0.0144     1.3766     0.0041 C.ar    
   2 C2             0.0301     0.0156    -0.2161 C.ar    
   3 C3            -1.1184    -0.6603    -0.6291 C.ar    
   4 C4            -2.3078     0.0431    -0.8179 C.ar    
   5 C5            -2.3456     1.4038    -0.5960 C.ar    
   6 C6            -1.2031     2.0729    -0.1796 C.ar    
   7 C7            -1.0745    -2.1218    -0.8671 C.2     
   8 C8            -1.8103    -2.9815    -0.0716 C.2     
   9 C9            -0.2833    -2.6523    -1.9152 C.2     
  10 C10           -0.2454    -3.9804    -2.1304 C.2     
  11 N11           -0.9643    -4.8374    -1.3470 N.pl3   
  12 C12           -1.7480    -4.3638    -0.3229 C.2     
  13 Cl13          -2.7950    -2.3637     1.2177 Cl      
  14 C14           -1.1130    -6.1908    -1.3333 C.2     
  15 N15           -1.9305    -6.4875    -0.3562 N.2     
  16 N16           -2.3127    -5.4172     0.2471 N.2     
  17 C17           -0.4561    -7.1686    -2.2731 C.3     
  18 C18            0.8865    -7.6135    -1.6896 C.3     
  19 Cl19           1.4137     2.2192     0.5181 Cl      
  20 O20           -1.2442     3.4135     0.0385 O.3     
  21 C21           -2.5204     4.0484    -0.0625 C.3     
  22 C22           -2.5231     5.3299     0.7767 C.3     
  23 C23           -3.8659     6.0436     0.5999 C.3     
  24 O24           -4.0772     6.3218    -0.7858 O.3     
  25 C25           -4.1314     5.1577    -1.6129 C.3     
  26 C26           -2.7993     4.4085    -1.5250 C.3     
  27 H27            0.9529    -0.5260    -0.0693 H       
  28 H28           -3.1984    -0.4773    -1.1379 H       
  29 H29           -3.2666     1.9486    -0.7421 H       
  30 H30            0.2914    -1.9887    -2.5442 H       
  31 H31            0.3609    -4.3733    -2.9331 H       
  32 H32           -1.1015    -8.0373    -2.4030 H       
  33 H33           -0.2920    -6.6903    -3.2387 H       
  34 H34            1.3617    -8.3208    -2.3694 H       
  35 H35            1.5320    -6.7448    -1.5598 H       
  36 H36            0.7224    -8.0918    -0.7241 H       
  37 H37           -3.2939     3.3723     0.3018 H       
  38 H38           -2.3803     5.0774     1.8274 H       
  39 H39           -1.7165     5.9839     0.4454 H       
  40 H40           -4.6684     5.4048     0.9689 H       
  41 H41           -3.8576     6.9779     1.1611 H       
  42 H42           -4.9374     4.5074    -1.2729 H       
  43 H43           -4.3144     5.4540    -2.6458 H       
  44 H44           -1.9983     5.0439    -1.9028 H       
  45 H45           -2.8540     3.4971    -2.1205 H       
@<TRIPOS>BOND
   1    1    2 ar
   2    1   19 1
   3    1    6 ar
   4    2    3 ar
   5    2   27 1
   6    3    4 ar
   7    3    7 1
   8    4    5 ar
   9    4   28 1
  10    5    6 ar
  11    5   29 1
  12    6   20 1
  13    7    8 2
  14    7    9 1
  15    8   13 1
  16    8   12 1
  17    9   10 2
  18    9   30 1
  19   10   11 1
  20   10   31 1
  21   11   12 1
  22   11   14 1
  23   12   16 2
  24   14   15 2
  25   14   17 1
  26   15   16 1
  27   17   18 1
  28   17   32 1
  29   17   33 1
  30   18   34 1
  31   18   35 1
  32   18   36 1
  33   20   21 1
  34   21   22 1
  35   21   26 1
  36   21   37 1
  37   22   23 1
  38   22   38 1
  39   22   39 1
  40   23   24 1
  41   23   40 1
  42   23   41 1
  43   24   25 1
  44   25   26 1
  45   25   42 1
  46   25   43 1
  47   26   44 1
  48   26   45 1

#	End of record

