#	Name: ASD05430240
#	Creating user name:	WinNT
#	Creation time:	15. 06. 2019 21:00

#	Modifying user name:	WinNT
#	Modification time:	15. 06. 2019 21:00

#	Program:	/corina/corina34_cracker 3.40 0067  02.08.2006

@<TRIPOS>MOLECULE
ASD05430240
  65   71    0    0    0
SMALL
NO_CHARGES


@<TRIPOS>ATOM
   1 C1             0.0524     1.1916     0.3787 C.ar    
   2 C2             0.0201    -0.0137    -0.3217 C.ar    
   3 C3             1.1734    -0.5040    -0.9204 C.ar    
   4 C4             2.3552     0.1983    -0.8252 C.ar    
   5 C5             2.3952     1.4081    -0.1242 C.ar    
   6 C6             1.2341     1.9015     0.4785 C.ar    
   7 C7             4.8676    -0.0053     0.2166 C.3     
   8 C8             4.8285     1.5000     0.0665 C.2     
   9 C9             3.6566     2.1595    -0.0209 C.2     
  10 C10            6.2143    -0.4207     0.8163 C.3     
  11 C11            6.8967     0.6151     1.7172 C.3     
  12 N12            7.0920     1.8468     0.9493 N.pl3   
  13 C13            6.1095     2.2205     0.0194 C.2     
  14 N14            6.3447     3.1421    -0.8613 N.2     
  15 N15           -1.1796    -0.7327    -0.4215 N.pl3   
  16 C16           -1.7378    -1.2310    -1.5700 C.2     
  17 C17           -2.8797    -1.8491    -1.2124 C.2     
  18 N18           -3.0195    -1.7344     0.1165 N.2     
  19 C19           -2.0048    -1.0721     0.6024 C.2     
  20 C20           -3.8356    -2.5481    -2.1445 C.3     
  21 C21            6.3995    -1.8959     1.1775 C.3     
  22 C22            7.1196    -1.3103    -0.0388 C.3     
  23 C23           -0.9740     2.9115     1.6604 C.3     
  24 O24           -1.0798     1.6712     0.9587 O.3     
  25 C25            8.2576     2.7019     1.1440 C.3     
  26 C26            8.7475     3.2199    -0.2088 C.3     
  27 N27            7.6075     3.7340    -0.9734 N.pl3   
  28 C28            7.9474     3.8380     2.0686 C.ar    
  29 C29            8.7856     3.7431     3.1831 C.ar    
  30 N30            9.6312     2.6505     3.0970 N.pl3   
  31 C31            9.3810     1.9214     1.8449 C.3     
  32 C32            7.0168     4.8528     1.9366 C.ar    
  33 C33            6.9446     5.7857     2.9635 C.ar    
  34 C34            8.7037     4.6876     4.2108 C.ar    
  35 C35            7.7682     5.7029     4.0701 C.ar    
  36 F36            7.6595     6.6356     5.0414 F       
  37 H37            1.1439    -1.4381    -1.4617 H       
  38 H38            3.2505    -0.1856    -1.2915 H       
  39 H39            1.2604     2.8354     1.0204 H       
  40 H40            4.0613    -0.3260     0.8763 H       
  41 H41            4.7454    -0.4716    -0.7610 H       
  42 H42            3.6429     3.2394    -0.0151 H       
  43 H43            6.2661     0.8195     2.5824 H       
  44 H44            7.8626     0.2329     2.0475 H       
  45 H45           -1.3388    -1.1440    -2.5698 H       
  46 H46           -1.8509    -0.8289     1.6433 H       
  47 H47           -3.5496    -3.5956    -2.2397 H       
  48 H48           -4.8471    -2.4826    -1.7438 H       
  49 H49           -3.8013    -2.0717    -3.1243 H       
  50 H50            7.0020    -2.1271     2.0559 H       
  51 H51            5.5623    -2.5686     0.9911 H       
  52 H52            6.7561    -1.5977    -1.0255 H       
  53 H53            8.1958    -1.1562     0.0394 H       
  54 H54           -1.9464     3.1793     2.0737 H       
  55 H55           -0.2506     2.8107     2.4694 H       
  56 H56           -0.6442     3.6907     0.9732 H       
  57 H57            9.4706     4.0202    -0.0516 H       
  58 H58            9.2187     2.4066    -0.7608 H       
  59 H59            7.7300     4.4936    -1.5640 H       
  60 H60           10.2908     2.4027     3.7637 H       
  61 H61            9.0577     0.9026     2.0584 H       
  62 H62           10.2785     1.9125     1.2264 H       
  63 H63            6.3736     4.9175     1.0714 H       
  64 H64            6.2300     6.5926     2.8955 H       
  65 H65            9.3434     4.6298     5.0791 H       
@<TRIPOS>BOND
   1    1    2 ar
   2    1    6 ar
   3    1   24 1
   4    2    3 ar
   5    2   15 1
   6    3    4 ar
   7    3   37 1
   8    4    5 ar
   9    4   38 1
  10    5    6 ar
  11    5    9 1
  12    6   39 1
  13    7    8 1
  14    7   10 1
  15    7   40 1
  16    7   41 1
  17    8    9 2
  18    8   13 1
  19    9   42 1
  20   10   11 1
  21   10   21 1
  22   10   22 1
  23   11   12 1
  24   11   43 1
  25   11   44 1
  26   12   13 1
  27   12   25 1
  28   13   14 2
  29   14   27 1
  30   15   16 1
  31   15   19 1
  32   16   17 2
  33   16   45 1
  34   17   18 1
  35   17   20 1
  36   18   19 2
  37   19   46 1
  38   20   47 1
  39   20   48 1
  40   20   49 1
  41   21   22 1
  42   21   50 1
  43   21   51 1
  44   22   52 1
  45   22   53 1
  46   23   24 1
  47   23   54 1
  48   23   55 1
  49   23   56 1
  50   25   26 1
  51   25   28 1
  52   25   31 1
  53   26   27 1
  54   26   57 1
  55   26   58 1
  56   27   59 1
  57   28   29 ar
  58   28   32 ar
  59   29   30 1
  60   29   34 ar
  61   30   31 1
  62   30   60 1
  63   31   61 1
  64   31   62 1
  65   32   33 ar
  66   32   63 1
  67   33   35 ar
  68   33   64 1
  69   34   35 ar
  70   34   65 1
  71   35   36 1

#	End of record

