#	Name: ASD08150398
#	Creating user name:	WinNT
#	Creation time:	15. 06. 2019 21:15

#	Modifying user name:	WinNT
#	Modification time:	15. 06. 2019 21:15

#	Program:	/corina/corina34_cracker 3.40 0067  02.08.2006

@<TRIPOS>MOLECULE
ASD08150398
  85   89    0    0    0
SMALL
NO_CHARGES


@<TRIPOS>ATOM
   1 N1             0.1651     1.2468    -0.2579 N.2     
   2 C2             0.2582    -0.0447    -0.3528 C.2     
   3 N3             1.4066    -0.7316    -0.1066 N.am    
   4 C4             2.5346    -0.0787     0.2581 C.2     
   5 C5             2.4622     1.3850     0.3741 C.ar    
   6 C6             3.5666     2.1504     0.7433 C.ar    
   7 C7             3.4431     3.5192     0.8371 C.ar    
   8 C8             2.2297     4.1390     0.5677 C.ar    
   9 C9             1.1267     3.4012     0.2014 C.ar    
  10 C10            1.2266     2.0121     0.0993 C.ar    
  11 O11            3.5690    -0.6803     0.4819 O.2     
  12 C12            1.4214    -2.1267    -0.2313 C.ar    
  13 C13            1.8648    -2.7129    -1.4068 C.ar    
  14 C14            1.8776    -4.1018    -1.5261 C.ar    
  15 C15            1.4439    -4.8933    -0.4611 C.ar    
  16 C16            1.0044    -4.3003     0.7049 C.ar    
  17 C17            0.9970    -2.9231     0.8251 C.ar    
  18 C18            2.3338    -4.7146    -2.7373 C.1     
  19 C19            2.7078    -5.2169    -3.7303 C.1     
  20 Si20           3.3130    -6.0300    -5.3373 Si      
  21 C21            3.2051    -7.8827    -5.1749 C.3     
  22 C22            2.2463    -5.4680    -6.7576 C.3     
  23 C23            5.0811    -5.5364    -5.6554 C.3     
  24 C24           -0.9681    -0.8226    -0.7556 C.3     
  25 C25           -2.2035     0.0711    -0.6285 C.3     
  26 N26           -0.8291    -1.2690    -2.1440 N.pl3   
  27 N27           -0.7067    -2.4041    -4.9983 N.2     
  28 C28           -0.9554    -3.1918    -6.0040 C.2     
  29 N29           -1.8228    -4.1724    -5.6241 N.pl3   
  30 C30           -2.1213    -3.9675    -4.3008 C.ar    
  31 N31           -2.8885    -4.5811    -3.4059 N.ar    
  32 C32           -2.9713    -4.1307    -2.1716 C.ar    
  33 N33           -2.3104    -3.0640    -1.7606 N.ar    
  34 C34           -1.5183    -2.3854    -2.5842 C.ar    
  35 C35           -1.3969    -2.8278    -3.9123 C.ar    
  36 C36           -2.3417    -5.2474    -6.4734 C.3     
  37 O37           -1.7966    -5.1209    -7.7883 O.3     
  38 C38           -2.2413    -6.1264    -8.7011 C.3     
  39 C39           -1.5978    -5.8935   -10.0695 C.3     
  40 Si40          -2.1776    -7.2044   -11.2595 Si      
  41 C41           -4.0315    -7.1192   -11.4224 C.3     
  42 C42           -1.3941    -6.9208   -12.9258 C.3     
  43 C43           -1.6869    -8.8842   -10.6204 C.3     
  44 C44            4.8864     1.4854     1.0383 C.3     
  45 H45            4.2970     4.1154     1.1231 H       
  46 H46            2.1505     5.2132     0.6468 H       
  47 H47            0.1884     3.8944    -0.0053 H       
  48 H48            2.1988    -2.0956    -2.2276 H       
  49 H49            1.4520    -5.9696    -0.5498 H       
  50 H50            0.6692    -4.9142     1.5277 H       
  51 H51            0.6564    -2.4647     1.7418 H       
  52 H52            2.1706    -8.1715    -4.9888 H       
  53 H53            3.5523    -8.3492    -6.0968 H       
  54 H54            3.8292    -8.2115    -4.3439 H       
  55 H55            2.3095    -4.3840    -6.8527 H       
  56 H56            2.5936    -5.9344    -7.6795 H       
  57 H57            1.2119    -5.7567    -6.5715 H       
  58 H58            5.7052    -5.8652    -4.8244 H       
  59 H59            5.4283    -6.0028    -6.5773 H       
  60 H60            5.1442    -4.4524    -5.7504 H       
  61 H61           -1.0784    -1.6897    -0.1044 H       
  62 H62           -2.2534     0.4806     0.3805 H       
  63 H63           -2.1376     0.8866    -1.3487 H       
  64 H64           -3.0994    -0.5172    -0.8266 H       
  65 H65           -0.2539    -0.7820    -2.7547 H       
  66 H66           -0.5366    -3.0842    -6.9937 H       
  67 H67           -3.6039    -4.6529    -1.4691 H       
  68 H68           -2.0567    -6.2120    -6.0532 H       
  69 H69           -3.4284    -5.1793    -6.5225 H       
  70 H70           -1.9542    -7.1092    -8.3271 H       
  71 H71           -3.3260    -6.0765    -8.7964 H       
  72 H72           -1.8849    -4.9107   -10.4435 H       
  73 H73           -0.5132    -5.9434    -9.9742 H       
  74 H74           -4.3186    -6.1364   -11.7964 H       
  75 H75           -4.3707    -7.8862   -12.1187 H       
  76 H76           -4.4899    -7.2851   -10.4475 H       
  77 H77           -0.3094    -6.9707   -12.8305 H       
  78 H78           -1.7333    -7.6878   -13.6221 H       
  79 H79           -1.6812    -5.9381   -13.2998 H       
  80 H80           -2.1454    -9.0501    -9.6455 H       
  81 H81           -2.0262    -9.6512   -11.3166 H       
  82 H82           -0.6023    -8.9340   -10.5251 H       
  83 H83            5.4453     1.3598     0.1110 H       
  84 H84            5.4600     2.1059     1.7270 H       
  85 H85            4.7087     0.5097     1.4904 H       
@<TRIPOS>BOND
   1    1    2 2
   2    1   10 1
   3    2    3 1
   4    2   24 1
   5    3    4 am
   6    3   12 1
   7    4    5 1
   8    4   11 2
   9    5    6 ar
  10    5   10 ar
  11    6    7 ar
  12    6   44 1
  13    7    8 ar
  14    7   45 1
  15    8    9 ar
  16    8   46 1
  17    9   10 ar
  18    9   47 1
  19   12   13 ar
  20   12   17 ar
  21   13   14 ar
  22   13   48 1
  23   14   15 ar
  24   14   18 1
  25   15   16 ar
  26   15   49 1
  27   16   17 ar
  28   16   50 1
  29   17   51 1
  30   18   19 3
  31   19   20 1
  32   20   21 1
  33   20   22 1
  34   20   23 1
  35   21   52 1
  36   21   53 1
  37   21   54 1
  38   22   55 1
  39   22   56 1
  40   22   57 1
  41   23   58 1
  42   23   59 1
  43   23   60 1
  44   24   25 1
  45   24   26 1
  46   24   61 1
  47   25   62 1
  48   25   63 1
  49   25   64 1
  50   26   34 1
  51   26   65 1
  52   27   28 2
  53   27   35 1
  54   28   29 1
  55   28   66 1
  56   29   30 1
  57   29   36 1
  58   30   31 ar
  59   30   35 ar
  60   31   32 ar
  61   32   33 ar
  62   32   67 1
  63   33   34 ar
  64   34   35 ar
  65   36   37 1
  66   36   68 1
  67   36   69 1
  68   37   38 1
  69   38   39 1
  70   38   70 1
  71   38   71 1
  72   39   40 1
  73   39   72 1
  74   39   73 1
  75   40   41 1
  76   40   42 1
  77   40   43 1
  78   41   74 1
  79   41   75 1
  80   41   76 1
  81   42   77 1
  82   42   78 1
  83   42   79 1
  84   43   80 1
  85   43   81 1
  86   43   82 1
  87   44   83 1
  88   44   84 1
  89   44   85 1

#	End of record

