#	Name: ASD01200091
#	Creating user name:	WinNT
#	Creation time:	15. 06. 2019 19:08

#	Modifying user name:	WinNT
#	Modification time:	15. 06. 2019 19:08

#	Program:	/corina/corina34_cracker 3.40 0067  02.08.2006

@<TRIPOS>MOLECULE
ASD01200091
  53   56    0    0    0
SMALL
NO_CHARGES


@<TRIPOS>ATOM
   1 C1            -0.2032     1.7083     0.3287 C.2     
   2 C2            -0.1717     0.2439     0.1298 C.ar    
   3 C3             0.9840    -0.3720    -0.3525 C.ar    
   4 C4             1.0095    -1.7445    -0.5371 C.ar    
   5 C5            -0.1123    -2.5070    -0.2435 C.ar    
   6 C6            -1.2632    -1.8988     0.2361 C.ar    
   7 C7            -1.2953    -0.5271     0.4291 C.ar    
   8 O8             0.7784     2.3779     0.0722 O.2     
   9 N9            -1.3222     2.3018     0.7894 N.am    
  10 O10           -2.3591    -2.6499     0.5216 O.3     
  11 C11           -3.3835    -2.6487    -0.3711 C.ar    
  12 C12           -4.5397    -3.3676    -0.1031 C.ar    
  13 C13           -5.5797    -3.3648    -1.0123 C.ar    
  14 C14           -5.4693    -2.6464    -2.1886 C.ar    
  15 C15           -4.3180    -1.9295    -2.4582 C.ar    
  16 C16           -3.2776    -1.9240    -1.5496 C.ar    
  17 S17           -0.0467     4.7370     0.6634 S.3     
  18 C18           -1.3518     3.6778     0.9763 C.2     
  19 N19           -2.3733     4.3461     1.4131 N.2     
  20 C20           -2.2269     5.6526     1.5302 C.2     
  21 C21           -1.0245     6.1101     1.1755 C.2     
  22 C22           -3.3283     6.5546     2.0244 C.3     
  23 O23            2.1343    -2.3452    -1.0067 O.3     
  24 C24            3.1604    -2.5457    -0.1386 C.ar    
  25 C25            4.3551    -3.0899    -0.5884 C.ar    
  26 C26            5.3964    -3.2927     0.2960 C.ar    
  27 C27            5.2492    -2.9542     1.6288 C.ar    
  28 C28            4.0600    -2.4118     2.0794 C.ar    
  29 C29            3.0174    -2.2013     1.1977 C.ar    
  30 S30            4.5432    -3.5225    -2.2861 S.o2    
  31 O31            4.1427    -2.3558    -2.9914 O.2     
  32 O32            5.8737    -4.0133    -2.3773 O.2     
  33 C33            3.3506    -4.8644    -2.5461 C.3     
  34 H34            1.8572     0.2208    -0.5819 H       
  35 H35           -0.0893    -3.5769    -0.3892 H       
  36 H36           -2.1903    -0.0549     0.8064 H       
  37 H37           -2.1068     1.7681     0.9903 H       
  38 H38           -4.6263    -3.9292     0.8153 H       
  39 H39           -6.4796    -3.9245    -0.8044 H       
  40 H40           -6.2835    -2.6454    -2.8981 H       
  41 H41           -4.2340    -1.3698    -3.3780 H       
  42 H42           -2.3805    -1.3600    -1.7585 H       
  43 H43           -0.7064     7.1419     1.1984 H       
  44 H44           -3.2619     6.6488     3.1083 H       
  45 H45           -3.2247     7.5386     1.5671 H       
  46 H46           -4.2949     6.1288     1.7552 H       
  47 H47            6.3264    -3.7162    -0.0535 H       
  48 H48            6.0644    -3.1142     2.3188 H       
  49 H49            3.9475    -2.1484     3.1207 H       
  50 H50            2.0903    -1.7730     1.5492 H       
  51 H51            2.3453    -4.5046    -2.3268 H       
  52 H52            3.3991    -5.1978    -3.5827 H       
  53 H53            3.5907    -5.6971    -1.8849 H       
@<TRIPOS>BOND
   1    1    2 1
   2    1    8 2
   3    1    9 am
   4    2    3 ar
   5    2    7 ar
   6    3    4 ar
   7    3   34 1
   8    4    5 ar
   9    4   23 1
  10    5    6 ar
  11    5   35 1
  12    6    7 ar
  13    6   10 1
  14    7   36 1
  15    9   18 1
  16    9   37 1
  17   10   11 1
  18   11   12 ar
  19   11   16 ar
  20   12   13 ar
  21   12   38 1
  22   13   14 ar
  23   13   39 1
  24   14   15 ar
  25   14   40 1
  26   15   16 ar
  27   15   41 1
  28   16   42 1
  29   17   18 1
  30   17   21 1
  31   18   19 2
  32   19   20 1
  33   20   21 2
  34   20   22 1
  35   21   43 1
  36   22   44 1
  37   22   45 1
  38   22   46 1
  39   23   24 1
  40   24   25 ar
  41   24   29 ar
  42   25   26 ar
  43   25   30 1
  44   26   27 ar
  45   26   47 1
  46   27   28 ar
  47   27   48 1
  48   28   29 ar
  49   28   49 1
  50   29   50 1
  51   30   31 2
  52   30   32 2
  53   30   33 1
  54   33   51 1
  55   33   52 1
  56   33   53 1

#	End of record

