#	Name: ASD03331075
#	Creating user name:	WinNT
#	Creation time:	15. 06. 2019 20:38

#	Modifying user name:	WinNT
#	Modification time:	15. 06. 2019 20:38

#	Program:	/corina/corina34_cracker 3.40 0067  02.08.2006

@<TRIPOS>MOLECULE
ASD03331075
  64   67    0    0    0
SMALL
NO_CHARGES


@<TRIPOS>ATOM
   1 N1             0.4534     0.6752    -0.3335 N.pl3   
   2 C2             0.1383    -0.6755    -0.1149 C.2     
   3 C3             1.0575    -1.5763     0.3147 C.2     
   4 N4             2.2203    -1.0528     0.8484 N.pl3   
   5 C5             2.0792     0.0547     1.7846 C.3     
   6 C6             2.2991     1.4244     1.0969 C.3     
   7 C7             1.8109     1.2239    -0.3648 C.3     
   8 C8            -0.8206     1.3550    -0.5605 C.3     
   9 N9            -1.8410     0.2988    -0.6200 N.2     
  10 C10           -1.2821    -0.8575    -0.3742 C.2     
  11 C11           -1.9920    -2.1638    -0.3623 C.2     
  12 O12           -1.3802    -3.1852    -0.1226 O.2     
  13 N13           -3.3144    -2.2145    -0.6175 N.am    
  14 C14            3.5358    -1.5879     0.4889 C.3     
  15 C15           -1.1155     2.2974     0.5779 C.ar    
  16 C16           -0.5829     3.5756     0.5743 C.ar    
  17 C17           -0.8537     4.4413     1.6199 C.ar    
  18 C18           -1.6561     4.0300     2.6674 C.ar    
  19 C19           -2.1889     2.7524     2.6708 C.ar    
  20 C20           -1.9219     1.8881     1.6224 C.ar    
  21 F21           -2.9733     2.3504     3.6947 F       
  22 F22            0.2014     3.9777    -0.4497 F       
  23 C23           -5.4732    -3.2776    -0.3040 C.2     
  24 C24           -4.0139    -3.5017    -0.6058 C.3     
  25 C25           -3.8730    -4.1712    -1.9743 C.3     
  26 C26           -2.3966    -4.4639    -2.2493 C.3     
  27 O27           -6.0017    -2.2296    -0.6094 O.2     
  28 C28           -4.6632    -5.4813    -1.9849 C.3     
  29 C29           -4.4182    -3.2379    -3.0572 C.3     
  30 N30           -6.1912    -4.2419     0.3052 N.am    
  31 C31           -7.5579    -4.3711     0.8327 C.3     
  32 C32           -7.0209    -5.4195     1.8169 C.3     
  33 C33           -5.9547    -5.6302     0.7292 C.3     
  34 H34            0.8903    -2.6410     0.2441 H       
  35 H35            1.0779     0.0303     2.2146 H       
  36 H36            2.8102    -0.0619     2.5847 H       
  37 H37            1.7080     2.1955     1.5911 H       
  38 H38            3.3563     1.6893     1.1099 H       
  39 H39            2.4744     0.5295    -0.8801 H       
  40 H40            1.8061     2.1825    -0.8836 H       
  41 H41           -0.7913     1.9018    -1.5029 H       
  42 H42           -3.8030    -1.3987    -0.8090 H       
  43 H43            3.4136    -2.4070    -0.2198 H       
  44 H44            4.1365    -0.8004     0.0340 H       
  45 H45            4.0361    -1.9547     1.3852 H       
  46 H46           -0.4378     5.4380     1.6174 H       
  47 H47           -1.8671     4.7053     3.4834 H       
  48 H48           -2.3408     0.8926     1.6231 H       
  49 H49           -3.5791    -4.1445     0.1596 H       
  50 H50           -2.0082    -5.1287    -1.4779 H       
  51 H51           -2.2963    -4.9408    -3.2243 H       
  52 H52           -1.8337    -3.5305    -2.2418 H       
  53 H53           -5.7226    -5.2677    -1.8434 H       
  54 H54           -4.5186    -5.9851    -2.9407 H       
  55 H55           -4.3113    -6.1244    -1.1783 H       
  56 H56           -3.8552    -2.3046    -3.0496 H       
  57 H57           -4.3178    -3.7149    -4.0321 H       
  58 H58           -5.4700    -3.0294    -2.8613 H       
  59 H59           -7.9229    -3.4664     1.3187 H       
  60 H60           -8.2657    -4.7768     0.1098 H       
  61 H61           -6.6375    -5.0031     2.7484 H       
  62 H62           -7.6813    -6.2742     1.9639 H       
  63 H63           -6.2398    -6.3677    -0.0210 H       
  64 H64           -4.9539    -5.7980     1.1270 H       
@<TRIPOS>BOND
   1    1    2 1
   2    1    7 1
   3    1    8 1
   4    2    3 2
   5    2   10 1
   6    3    4 1
   7    3   34 1
   8    4    5 1
   9    4   14 1
  10    5    6 1
  11    5   35 1
  12    5   36 1
  13    6    7 1
  14    6   37 1
  15    6   38 1
  16    7   39 1
  17    7   40 1
  18    8    9 1
  19    8   15 1
  20    8   41 1
  21    9   10 2
  22   10   11 1
  23   11   12 2
  24   11   13 am
  25   13   24 1
  26   13   42 1
  27   14   43 1
  28   14   44 1
  29   14   45 1
  30   15   16 ar
  31   15   20 ar
  32   16   17 ar
  33   16   22 1
  34   17   18 ar
  35   17   46 1
  36   18   19 ar
  37   18   47 1
  38   19   20 ar
  39   19   21 1
  40   20   48 1
  41   23   24 1
  42   23   27 2
  43   23   30 am
  44   24   25 1
  45   24   49 1
  46   25   26 1
  47   25   28 1
  48   25   29 1
  49   26   50 1
  50   26   51 1
  51   26   52 1
  52   28   53 1
  53   28   54 1
  54   28   55 1
  55   29   56 1
  56   29   57 1
  57   29   58 1
  58   30   31 1
  59   30   33 1
  60   31   32 1
  61   31   59 1
  62   31   60 1
  63   32   33 1
  64   32   61 1
  65   32   62 1
  66   33   63 1
  67   33   64 1

#	End of record

