#	Name: ASD01912148
#	Creating user name:	WinNT
#	Creation time:	15. 06. 2019 19:59

#	Modifying user name:	WinNT
#	Modification time:	15. 06. 2019 19:59

#	Program:	/corina/corina34_cracker 3.40 0067  02.08.2006

@<TRIPOS>MOLECULE
ASD01912148
  47   51    0    0    0
SMALL
NO_CHARGES


@<TRIPOS>ATOM
   1 C1            -0.0185     1.5144     0.0104 C.3     
   2 C2             0.0021    -0.0041     0.0020 C.3     
   3 C3             0.7328    -0.5448     1.2073 C.3     
   4 C4             0.3319     0.0744     2.5236 C.3     
   5 N5            -0.4103     1.3166     2.4623 N.am    
   6 C6            -0.7277     2.0409     1.2359 C.3     
   7 C7             1.3981     2.0283    -0.0004 C.2     
   8 O8             2.3364     1.7878     0.9210 O.3     
   9 N9             3.3698     2.3461     0.6186 N.2     
  10 C10            3.2160     2.9958    -0.5089 C.2     
  11 N11            1.9417     2.7892    -0.9168 N.2     
  12 C12            4.2419     3.7985    -1.2066 C.2     
  13 C13            5.5249     3.9970    -0.7914 C.2     
  14 C14            6.1501     4.8159    -1.7439 C.2     
  15 C15            5.2425     5.0937    -2.7061 C.2     
  16 N16            4.0739     4.4716    -2.3905 N.pl3   
  17 C17            1.5650     0.2525     3.3725 C.2     
  18 C18            1.5169     0.4661     4.6603 C.2     
  19 C19            0.2720     0.5764     5.4318 C.ar    
  20 C20           -0.8533     1.2401     4.9300 C.ar    
  21 C21           -0.9061     1.8444     3.6009 C.2     
  22 O22           -1.4493     2.9286     3.5124 O.2     
  23 C23            0.2272    -0.0034     6.7051 C.ar    
  24 C24           -0.9134     0.0866     7.4720 C.ar    
  25 C25           -2.0250     0.7560     6.9860 C.ar    
  26 C26           -2.0018     1.3266     5.7347 C.ar    
  27 C27            7.5767     5.2996    -1.7012 C.3     
  28 H28           -0.5348     1.8701    -0.8813 H       
  29 H29           -1.0226    -0.3756     0.0087 H       
  30 H30            0.5009    -0.3499    -0.9033 H       
  31 H31            0.5552    -1.6187     1.2641 H       
  32 H32            1.8011    -0.3841     1.0627 H       
  33 H33           -0.2963    -0.6504     3.0413 H       
  34 H34           -0.4567     3.0880     1.3710 H       
  35 H35           -1.8030     1.9829     1.0668 H       
  36 H36            5.9766     3.5978     0.1047 H       
  37 H37            5.4168     5.7029    -3.5807 H       
  38 H38            3.2567     4.5040    -2.9121 H       
  39 H39            2.5320     0.2008     2.8943 H       
  40 H40            2.4518     0.5677     5.1914 H       
  41 H41            1.0920    -0.5248     7.0882 H       
  42 H42           -0.9414    -0.3650     8.4526 H       
  43 H43           -2.9152     0.8296     7.5931 H       
  44 H44           -2.8746     1.8459     5.3673 H       
  45 H45            8.2190     4.5823    -2.2121 H       
  46 H46            7.6471     6.2678    -2.1969 H       
  47 H47            7.8959     5.3985    -0.6637 H       
@<TRIPOS>BOND
   1    1    2 1
   2    1    7 1
   3    1    6 1
   4    1   28 1
   5    2    3 1
   6    2   29 1
   7    2   30 1
   8    3    4 1
   9    3   31 1
  10    3   32 1
  11    4    5 1
  12    4   17 1
  13    4   33 1
  14    5    6 1
  15    5   21 am
  16    6   34 1
  17    6   35 1
  18    7    8 1
  19    7   11 2
  20    8    9 1
  21    9   10 2
  22   10   11 1
  23   10   12 1
  24   12   13 2
  25   12   16 1
  26   13   14 1
  27   13   36 1
  28   14   15 2
  29   14   27 1
  30   15   16 1
  31   15   37 1
  32   16   38 1
  33   17   18 2
  34   17   39 1
  35   18   19 1
  36   18   40 1
  37   19   20 ar
  38   19   23 ar
  39   20   21 1
  40   20   26 ar
  41   21   22 2
  42   23   24 ar
  43   23   41 1
  44   24   25 ar
  45   24   42 1
  46   25   26 ar
  47   25   43 1
  48   26   44 1
  49   27   45 1
  50   27   46 1
  51   27   47 1

#	End of record

