#	Name: ASD01816443
#	Creating user name:	WinNT
#	Creation time:	15. 06. 2019 19:35

#	Modifying user name:	WinNT
#	Modification time:	15. 06. 2019 19:35

#	Program:	/corina/corina34_cracker 3.40 0067  02.08.2006

@<TRIPOS>MOLECULE
ASD01816443
  54   59    0    0    0
SMALL
NO_CHARGES


@<TRIPOS>ATOM
   1 C1            -0.0167     1.3813     0.0096 C.ar    
   2 C2             0.0021    -0.0041     0.0020 C.ar    
   3 C3             1.1984    -0.6909    -0.0127 C.ar    
   4 C4             2.4015     0.0059    -0.0204 C.ar    
   5 C5             2.3790     1.4106    -0.0132 C.ar    
   6 C6             1.1663     2.0916     0.0022 C.ar    
   7 N7             3.6053    -0.6772    -0.0347 N.pl3   
   8 C8             4.7970    -0.0586    -0.0427 C.2     
   9 C9             4.9000     1.3103    -0.0368 C.2     
  10 C10            3.6670     2.1301    -0.0217 C.2     
  11 C11            5.9971     2.2729    -0.0418 C.2     
  12 N12            5.4246     3.4960    -0.0305 N.am    
  13 N13            4.0323     3.3799    -0.0186 N.2     
  14 C14            6.1262     4.7077    -0.0303 C.ar    
  15 O15            7.1914     2.0229    -0.0534 O.2     
  16 C16            3.5779    -2.1419    -0.0408 C.3     
  17 C17            3.5552    -2.6380    -1.4636 C.ar    
  18 C18            4.7429    -2.8875    -2.1264 C.ar    
  19 C19            4.7253    -3.3418    -3.4306 C.ar    
  20 C20            3.5135    -3.5483    -4.0760 C.ar    
  21 C21            2.3227    -3.2974    -3.4078 C.ar    
  22 C22            2.3466    -2.8482    -2.1019 C.ar    
  23 N23            3.4924    -4.0089    -5.3999 N.pl3   
  24 C24            2.3874    -4.2504    -6.1410 C.2     
  25 C25            2.7937    -4.6802    -7.3580 C.2     
  26 C26            4.1928    -4.7025    -7.3620 C.2     
  27 N27            4.6123    -4.2947    -6.1913 N.2     
  28 C28            7.0588     4.9721    -1.0248 C.ar    
  29 C29            7.7489     6.1684    -1.0221 C.ar    
  30 C30            7.5129     7.1030    -0.0303 C.ar    
  31 C31            6.5852     6.8438     0.9617 C.ar    
  32 C32            5.8868     5.6510     0.9619 C.ar    
  33 Cl33           4.7170     5.3289     2.2035 Cl      
  34 C34            6.3313     7.8651     2.0404 C.3     
  35 H35           -0.9602     1.9068     0.0170 H       
  36 H36           -0.9289    -0.5515     0.0080 H       
  37 H37            1.2004    -1.7709    -0.0178 H       
  38 H38            1.1506     3.1715     0.0074 H       
  39 H39            5.6983    -0.6536    -0.0538 H       
  40 H40            4.4657    -2.5240     0.4631 H       
  41 H41            2.6862    -2.4908     0.4799 H       
  42 H42            5.6852    -2.7266    -1.6239 H       
  43 H43            5.6532    -3.5358    -3.9480 H       
  44 H44            1.3785    -3.4568    -3.9073 H       
  45 H45            1.4207    -2.6528    -1.5815 H       
  46 H46            1.3643    -4.1236    -5.8191 H       
  47 H47            2.1516    -4.9571    -8.1810 H       
  48 H48            4.8187    -5.0005    -8.1901 H       
  49 H49            7.2445     4.2428    -1.7993 H       
  50 H50            8.4742     6.3742    -1.7954 H       
  51 H51            8.0546     8.0373    -0.0305 H       
  52 H52            5.5341     8.5376     1.7236 H       
  53 H53            6.0353     7.3578     2.9586 H       
  54 H54            7.2408     8.4386     2.2191 H       
@<TRIPOS>BOND
   1    1    2 ar
   2    1    6 ar
   3    1   35 1
   4    2    3 ar
   5    2   36 1
   6    3    4 ar
   7    3   37 1
   8    4    5 ar
   9    4    7 1
  10    5    6 ar
  11    5   10 1
  12    6   38 1
  13    7    8 1
  14    7   16 1
  15    8    9 2
  16    8   39 1
  17    9   10 1
  18    9   11 1
  19   10   13 2
  20   11   12 am
  21   11   15 2
  22   12   13 1
  23   12   14 1
  24   14   32 ar
  25   14   28 ar
  26   16   17 1
  27   16   40 1
  28   16   41 1
  29   17   18 ar
  30   17   22 ar
  31   18   19 ar
  32   18   42 1
  33   19   20 ar
  34   19   43 1
  35   20   21 ar
  36   20   23 1
  37   21   22 ar
  38   21   44 1
  39   22   45 1
  40   23   24 1
  41   23   27 1
  42   24   25 2
  43   24   46 1
  44   25   26 1
  45   25   47 1
  46   26   27 2
  47   26   48 1
  48   28   29 ar
  49   28   49 1
  50   29   30 ar
  51   29   50 1
  52   30   31 ar
  53   30   51 1
  54   31   32 ar
  55   31   34 1
  56   32   33 1
  57   34   52 1
  58   34   53 1
  59   34   54 1

#	End of record

