#	Name: ASD09740226
#	Creating user name:	WinNT
#	Creation time:	15. 06. 2019 21:23

#	Modifying user name:	WinNT
#	Modification time:	15. 06. 2019 21:23

#	Program:	/corina/corina34_cracker 3.40 0067  02.08.2006

@<TRIPOS>MOLECULE
ASD09740226
  49   51    0    0    0
SMALL
NO_CHARGES


@<TRIPOS>ATOM
   1 O1            -0.0144     1.2086     0.0087 O.3     
   2 N2             0.0021    -0.0041     0.0020 N.2     
   3 C3             1.2431     1.6781    -0.0008 C.2     
   4 N4             2.0405     0.6237    -0.0141 N.2     
   5 C5             1.2261    -0.4429    -0.0120 C.2     
   6 C6             1.6530    -1.8881    -0.0239 C.3     
   7 C7             1.6554     3.0960     0.0024 C.ar    
   8 C8             1.1179    -2.5900     1.2274 C.3     
   9 C9             1.0875    -2.5786    -1.2680 C.3     
  10 C10            1.4730    -4.0594    -1.2434 C.3     
  11 N11            0.9374    -4.6857    -0.0280 N.3     
  12 C12            1.5026    -4.0705     1.1797 C.3     
  13 C13            0.6900     4.1058     0.0171 C.ar    
  14 C14            1.0808     5.4309     0.0206 C.ar    
  15 C15            2.4359     5.7578     0.0094 C.ar    
  16 C16            3.3944     4.7549    -0.0051 C.ar    
  17 C17            3.0110     3.4303    -0.0033 C.ar    
  18 C18            1.1690    -6.1363    -0.0374 C.3     
  19 O19            0.1437     6.4163     0.0344 O.3     
  20 C20           -2.1260     7.2461     0.0597 C.3     
  21 C21           -1.2260     6.0089     0.0448 C.3     
  22 O22            2.8187     7.0614     0.0124 O.3     
  23 C23            4.4582     8.8370     0.0059 C.3     
  24 C24            4.2231     7.3251     0.0005 C.3     
  25 H25            2.7414    -1.9464    -0.0368 H       
  26 H26            1.5506    -2.1300     2.1158 H       
  27 H27            0.0324    -2.4969     1.2607 H       
  28 H28            0.0015    -2.4853    -1.2740 H       
  29 H29            1.4984    -2.1104    -2.1625 H       
  30 H30            1.0597    -4.5569    -2.1207 H       
  31 H31            2.5590    -4.1521    -1.2514 H       
  32 H32            2.5885    -4.1632     1.1604 H       
  33 H33            1.1107    -4.5761     2.0623 H       
  34 H34           -0.3595     3.8511     0.0254 H       
  35 H35            4.4433     5.0122    -0.0141 H       
  36 H36            3.7592     2.6516    -0.0144 H       
  37 H37            2.2398    -6.3330    -0.0892 H       
  38 H38            0.7626    -6.5751     0.8738 H       
  39 H39            0.6763    -6.5773    -0.9040 H       
  40 H40           -1.9161     7.8374     0.9509 H       
  41 H41           -1.9324     7.8469    -0.8289 H       
  42 H42           -3.1707     6.9353     0.0676 H       
  43 H43           -1.4359     5.4175    -0.8464 H       
  44 H44           -1.4196     5.4081     0.9335 H       
  45 H45            5.5294     9.0381    -0.0032 H       
  46 H46            3.9979     9.2794    -0.8776 H       
  47 H47            4.0147     9.2704     0.9023 H       
  48 H48            4.6834     6.8827     0.8839 H       
  49 H49            4.6666     6.8917    -0.8959 H       
@<TRIPOS>BOND
   1    1    2 1
   2    1    3 1
   3    2    5 2
   4    3    4 2
   5    3    7 1
   6    4    5 1
   7    5    6 1
   8    6    8 1
   9    6    9 1
  10    6   25 1
  11    7   13 ar
  12    7   17 ar
  13    8   12 1
  14    8   26 1
  15    8   27 1
  16    9   10 1
  17    9   28 1
  18    9   29 1
  19   10   11 1
  20   10   30 1
  21   10   31 1
  22   11   12 1
  23   11   18 1
  24   12   32 1
  25   12   33 1
  26   13   14 ar
  27   13   34 1
  28   14   15 ar
  29   14   19 1
  30   15   16 ar
  31   15   22 1
  32   16   17 ar
  33   16   35 1
  34   17   36 1
  35   18   37 1
  36   18   38 1
  37   18   39 1
  38   19   21 1
  39   20   21 1
  40   20   40 1
  41   20   41 1
  42   20   42 1
  43   21   43 1
  44   21   44 1
  45   22   24 1
  46   23   24 1
  47   23   45 1
  48   23   46 1
  49   23   47 1
  50   24   48 1
  51   24   49 1

#	End of record

