#	Name: ASD03330893
#	Creating user name:	WinNT
#	Creation time:	15. 06. 2019 20:38

#	Modifying user name:	WinNT
#	Modification time:	15. 06. 2019 20:38

#	Program:	/corina/corina34_cracker 3.40 0067  02.08.2006

@<TRIPOS>MOLECULE
ASD03330893
  60   62    0    0    0
SMALL
NO_CHARGES


@<TRIPOS>ATOM
   1 N1            -0.3589     1.2985    -0.7654 N.pl3   
   2 C2            -0.3726    -0.0251    -0.4556 C.2     
   3 C3             0.8422    -0.8835    -0.2178 C.3     
   4 N4             1.7580    -0.1808     0.6944 N.3     
   5 C5             2.6888     0.6748    -0.0441 C.3     
   6 C6             2.0254     1.2556    -1.2895 C.3     
   7 C7             0.8392     2.1343    -0.8831 C.3     
   8 C8            -1.6547     1.6929    -0.9305 C.2     
   9 N9            -2.4372     0.6620    -0.7143 N.2     
  10 C10           -1.6771    -0.4142    -0.4158 C.2     
  11 C11           -2.1710    -1.7669    -0.1032 C.2     
  12 O12           -1.3834    -2.6582     0.1508 O.2     
  13 N13           -3.4954    -2.0164    -0.0987 N.am    
  14 C14            2.4818    -1.1314     1.5491 C.3     
  15 C15           -5.3417    -3.5589    -0.4166 C.2     
  16 C16           -3.9865    -3.3612     0.2121 C.3     
  17 C17           -4.0992    -3.5250     1.7291 C.3     
  18 C18           -5.1360    -2.5399     2.2728 C.3     
  19 O19           -6.0562    -2.6025    -0.6307 O.2     
  20 N20           -5.7598    -4.7984    -0.7410 N.am    
  21 C21           -7.1207    -5.0046    -1.2427 C.3     
  22 C22           -4.5334    -4.9550     2.0568 C.3     
  23 C23           -2.7409    -3.2439     2.3747 C.3     
  24 C24           -2.1026     3.0556    -1.2925 C.ar    
  25 C25           -1.2469     4.1437    -1.1174 C.ar    
  26 C26           -1.6700     5.4120    -1.4565 C.ar    
  27 C27           -2.9412     5.6066    -1.9699 C.ar    
  28 C28           -3.7949     4.5305    -2.1455 C.ar    
  29 C29           -3.3804     3.2569    -1.8156 C.ar    
  30 Cl30          -3.4669     7.2056    -2.3946 Cl      
  31 H31            0.5378    -1.8298     0.2292 H       
  32 H32            1.3460    -1.0725    -1.1657 H       
  33 H33            3.0147     1.4904     0.6015 H       
  34 H34            3.5567     0.0864    -0.3420 H       
  35 H35            2.7499     1.8565    -1.8393 H       
  36 H36            1.6734     0.4430    -1.9250 H       
  37 H37            0.6763     2.9002    -1.6414 H       
  38 H38            1.0486     2.6083     0.0759 H       
  39 H39           -4.1236    -1.3055    -0.3013 H       
  40 H40            3.0067    -1.8545     0.9248 H       
  41 H41            3.2020    -0.5916     2.1639 H       
  42 H42            1.7737    -1.6533     2.1927 H       
  43 H43           -3.2913    -4.1021    -0.1827 H       
  44 H44           -6.1037    -2.7402     1.8128 H       
  45 H45           -5.2163    -2.6566     3.3535 H       
  46 H46           -4.8266    -1.5211     2.0393 H       
  47 H47           -5.1596    -5.5540    -0.6422 H       
  48 H48           -7.8386    -4.6723    -0.4929 H       
  49 H49           -7.2608    -4.4312    -2.1591 H       
  50 H50           -7.2751    -6.0636    -1.4495 H       
  51 H51           -3.7610    -5.6525     1.7329 H       
  52 H52           -4.6828    -5.0520     3.1321 H       
  53 H53           -5.4659    -5.1793     1.5387 H       
  54 H54           -2.4315    -2.2251     2.1413 H       
  55 H55           -2.8212    -3.3606     3.4555 H       
  56 H56           -2.0023    -3.9457     1.9874 H       
  57 H57           -0.2553     3.9931    -0.7167 H       
  58 H58           -1.0086     6.2550    -1.3211 H       
  59 H59           -4.7856     4.6882    -2.5456 H       
  60 H60           -4.0453     2.4177    -1.9574 H       
@<TRIPOS>BOND
   1    1    2 1
   2    1    7 1
   3    1    8 1
   4    2    3 1
   5    2   10 2
   6    3    4 1
   7    3   31 1
   8    3   32 1
   9    4    5 1
  10    4   14 1
  11    5    6 1
  12    5   33 1
  13    5   34 1
  14    6    7 1
  15    6   35 1
  16    6   36 1
  17    7   37 1
  18    7   38 1
  19    8    9 2
  20    8   24 1
  21    9   10 1
  22   10   11 1
  23   11   12 2
  24   11   13 am
  25   13   16 1
  26   13   39 1
  27   14   40 1
  28   14   41 1
  29   14   42 1
  30   15   19 2
  31   15   20 am
  32   15   16 1
  33   16   17 1
  34   16   43 1
  35   17   18 1
  36   17   22 1
  37   17   23 1
  38   18   44 1
  39   18   45 1
  40   18   46 1
  41   20   21 1
  42   20   47 1
  43   21   48 1
  44   21   49 1
  45   21   50 1
  46   22   51 1
  47   22   52 1
  48   22   53 1
  49   23   54 1
  50   23   55 1
  51   23   56 1
  52   24   25 ar
  53   24   29 ar
  54   25   26 ar
  55   25   57 1
  56   26   27 ar
  57   26   58 1
  58   27   28 ar
  59   27   30 1
  60   28   29 ar
  61   28   59 1
  62   29   60 1

#	End of record

