#	Name: ASD01028199
#	Creating user name:	WinNT
#	Creation time:	15. 06. 2019 18:56

#	Modifying user name:	WinNT
#	Modification time:	15. 06. 2019 18:56

#	Program:	/corina/corina34_cracker 3.40 0067  02.08.2006

@<TRIPOS>MOLECULE
ASD01028199
  62   67    0    0    0
SMALL
NO_CHARGES


@<TRIPOS>ATOM
   1 C1            -0.0166     1.3719     0.0096 C.ar    
   2 C2             0.0021    -0.0041     0.0020 C.ar    
   3 C3             1.1750     2.1035     0.0021 C.ar    
   4 C4             2.3797     1.4715    -0.0128 C.ar    
   5 C5             2.4326     0.0695    -0.0208 C.ar    
   6 C6             1.2322    -0.6815    -0.0134 C.ar    
   7 C7             3.6676    -0.6170    -0.0367 C.ar    
   8 C8             3.6411    -2.0003    -0.0444 C.ar    
   9 C9             2.4221    -2.6660    -0.0364 C.ar    
  10 N10            1.2804    -2.0188    -0.0211 N.ar    
  11 O11            4.8427     0.0593    -0.0447 O.3     
  12 C12            6.0400    -0.7207    -0.0607 C.3     
  13 C13            7.2364     0.1957    -0.0676 C.2     
  14 N14            7.8801     0.6746     1.0193 N.pl3   
  15 C15            8.9001     1.4619     0.5397 C.2     
  16 N16            8.8258     1.4222    -0.7806 N.2     
  17 N17            7.8431     0.6668    -1.1285 N.2     
  18 N18            7.7025     0.5207     2.3957 N.2     
  19 C19            8.5057     1.1248     3.2432 C.2     
  20 C20            9.5616     1.9394     2.7821 C.2     
  21 C21            9.7596     2.1083     1.4481 C.2     
  22 C22            8.2992     0.9484     4.7018 C.ar    
  23 C23            7.2595     0.1467     5.1686 C.ar    
  24 C24            9.1478     1.5792     5.6092 C.ar    
  25 C25            8.9521     1.4125     6.9655 C.ar    
  26 C26            7.9160     0.6209     7.4256 C.ar    
  27 C27            7.0720    -0.0139     6.5286 C.ar    
  28 O28           -1.2065     2.0271     0.0188 O.3     
  29 C29           -1.1606     3.4553     0.0263 C.3     
  30 C30            7.7082     0.4425     8.9075 C.3     
  31 N31            6.5513     1.2385     9.3390 N.3     
  32 C32            6.1715     0.9098    10.7207 C.3     
  33 C33            5.0033     1.8018    11.1490 C.3     
  34 O34            3.9180     1.6297    10.2337 O.3     
  35 C35            4.2527     1.9416     8.8787 C.3     
  36 C36            5.4133     1.0510     8.4273 C.3     
  37 F37            6.0610    -0.7858     6.9838 F       
  38 H38           -0.9239    -0.5598     0.0082 H       
  39 H39            1.1387     3.1829     0.0079 H       
  40 H40            3.2932     2.0476    -0.0188 H       
  41 H41            4.5646    -2.5602    -0.0569 H       
  42 H42            2.4134    -3.7460    -0.0425 H       
  43 H43            6.0728    -1.3543     0.8256 H       
  44 H44            6.0552    -1.3447    -0.9543 H       
  45 H45           10.2134     2.4294     3.4902 H       
  46 H46           10.5661     2.7307     1.0895 H       
  47 H47            6.6014    -0.3478     4.4694 H       
  48 H48            9.9578     2.1976     5.2519 H       
  49 H49            9.6101     1.9012     7.6689 H       
  50 H50           -0.6312     3.7971     0.9157 H       
  51 H51           -0.6396     3.8068    -0.8642 H       
  52 H52           -2.1761     3.8514     0.0333 H       
  53 H53            7.5264    -0.6100     9.1248 H       
  54 H54            8.5979     0.7755     9.4419 H       
  55 H55            5.8702    -0.1362    10.7763 H       
  56 H56            7.0211     1.0802    11.3820 H       
  57 H57            4.6811     1.5228    12.1522 H       
  58 H58            5.3210     2.8445    11.1449 H       
  59 H59            3.3876     1.7637     8.2399 H       
  60 H60            4.5486     2.9884     8.8086 H       
  61 H61            5.7094     1.3244     7.4146 H       
  62 H62            5.0999     0.0072     8.4463 H       
@<TRIPOS>BOND
   1    1    2 ar
   2    1    3 ar
   3    1   28 1
   4    2    6 ar
   5    2   38 1
   6    3    4 ar
   7    3   39 1
   8    4    5 ar
   9    4   40 1
  10    5    6 ar
  11    5    7 ar
  12    6   10 ar
  13    7    8 ar
  14    7   11 1
  15    8    9 ar
  16    8   41 1
  17    9   10 ar
  18    9   42 1
  19   11   12 1
  20   12   13 1
  21   12   43 1
  22   12   44 1
  23   13   14 1
  24   13   17 2
  25   14   15 1
  26   14   18 1
  27   15   16 2
  28   15   21 1
  29   16   17 1
  30   18   19 2
  31   19   20 1
  32   19   22 1
  33   20   21 2
  34   20   45 1
  35   21   46 1
  36   22   23 ar
  37   22   24 ar
  38   23   27 ar
  39   23   47 1
  40   24   25 ar
  41   24   48 1
  42   25   26 ar
  43   25   49 1
  44   26   27 ar
  45   26   30 1
  46   27   37 1
  47   28   29 1
  48   29   50 1
  49   29   51 1
  50   29   52 1
  51   30   31 1
  52   30   53 1
  53   30   54 1
  54   31   32 1
  55   31   36 1
  56   32   33 1
  57   32   55 1
  58   32   56 1
  59   33   34 1
  60   33   57 1
  61   33   58 1
  62   34   35 1
  63   35   36 1
  64   35   59 1
  65   35   60 1
  66   36   61 1
  67   36   62 1

#	End of record

