#	Name: ASD01810944
#	Creating user name:	WinNT
#	Creation time:	15. 06. 2019 19:25

#	Modifying user name:	WinNT
#	Modification time:	15. 06. 2019 19:25

#	Program:	/corina/corina34_cracker 3.40 0067  02.08.2006

@<TRIPOS>MOLECULE
ASD01810944
  41   42    0    0    0
SMALL
NO_CHARGES


@<TRIPOS>ATOM
   1 C1            -0.0383     1.4182     0.1476 C.2     
   2 C2             0.1089    -0.0490     0.0567 C.ar    
   3 C3             1.3556    -0.6115    -0.2294 C.ar    
   4 C4             1.4940    -1.9822    -0.3141 C.ar    
   5 C5             0.4029    -2.8061    -0.1169 C.ar    
   6 C6            -0.8478    -2.2572     0.1695 C.ar    
   7 C7            -0.9942    -0.8759     0.2617 C.ar    
   8 O8             0.9420     2.1323     0.0796 O.2     
   9 O9            -1.2602     1.9644     0.3003 O.3     
  10 S10           -3.6188    -2.4473     0.6081 S.3     
  11 C11           -4.5922    -3.9602     0.8079 C.3     
  12 C12           -2.0160    -3.1427     0.3799 C.2     
  13 N13           -1.8585    -4.4366     0.3963 N.2     
  14 C14            2.5511     0.2800    -0.4464 C.3     
  15 C15            0.5634    -4.3015    -0.2118 C.3     
  16 C16            0.7330    -4.8863     1.1918 C.3     
  17 C17            0.7917    -6.4228     1.2161 C.3     
  18 C18            1.8928    -6.2856     2.2807 C.3     
  19 C19            2.1908    -4.9013     1.6810 C.3     
  20 C20           -1.3294     3.4124     0.3823 C.3     
  21 H21            2.4595    -2.4124    -0.5357 H       
  22 H22           -1.9592    -0.4467     0.4875 H       
  23 H23           -4.4989    -4.5733    -0.0884 H       
  24 H24           -4.2245    -4.5177     1.6694 H       
  25 H25           -5.6394    -3.7006     0.9632 H       
  26 H26           -2.6319    -5.0186     0.4600 H       
  27 H27            2.9790     0.5551     0.5176 H       
  28 H28            3.2977    -0.2508    -1.0371 H       
  29 H29            2.2414     1.1805    -0.9767 H       
  30 H30           -0.3210    -4.7329    -0.6807 H       
  31 H31            1.4431    -4.5352    -0.8115 H       
  32 H32            0.0332    -4.4647     1.9134 H       
  33 H33           -0.1204    -6.8888     1.5888 H       
  34 H34            1.1406    -6.8612     0.2811 H       
  35 H35            1.5112    -6.2464     3.3010 H       
  36 H36            2.7084    -6.9986     2.1598 H       
  37 H37            2.9222    -4.9237     0.8731 H       
  38 H38            2.4082    -4.1389     2.4291 H       
  39 H39           -0.9262     3.8478    -0.5320 H       
  40 H40           -2.3680     3.7202     0.5040 H       
  41 H41           -0.7461     3.7563     1.2365 H       
@<TRIPOS>BOND
   1    1    2 1
   2    1    8 2
   3    1    9 1
   4    2    3 ar
   5    2    7 ar
   6    3    4 ar
   7    3   14 1
   8    4    5 ar
   9    4   21 1
  10    5    6 ar
  11    5   15 1
  12    6    7 ar
  13    6   12 1
  14    7   22 1
  15    9   20 1
  16   10   11 1
  17   10   12 1
  18   11   23 1
  19   11   24 1
  20   11   25 1
  21   12   13 2
  22   13   26 1
  23   14   27 1
  24   14   28 1
  25   14   29 1
  26   15   16 1
  27   15   30 1
  28   15   31 1
  29   16   17 1
  30   16   19 1
  31   16   32 1
  32   17   18 1
  33   17   33 1
  34   17   34 1
  35   18   19 1
  36   18   35 1
  37   18   36 1
  38   19   37 1
  39   19   38 1
  40   20   39 1
  41   20   40 1
  42   20   41 1

#	End of record

