#	Name: ASD03082071
#	Creating user name:	WinNT
#	Creation time:	15. 06. 2019 20:27

#	Modifying user name:	WinNT
#	Modification time:	15. 06. 2019 20:27

#	Program:	/corina/corina34_cracker 3.40 0067  02.08.2006

@<TRIPOS>MOLECULE
ASD03082071
  59   61    0    0    0
SMALL
NO_CHARGES


@<TRIPOS>ATOM
   1 C1            -0.0058     1.4357     0.0197 C.3     
   2 O2             0.0094    -0.0162     0.0163 O.3     
   3 C3            -1.1849    -0.6405     0.0159 C.2     
   4 C4            -1.2466    -2.1131     0.0125 C.ar    
   5 O5            -2.2108     0.0106     0.0183 O.2     
   6 C6            -0.0749    -2.8654    -0.1011 C.ar    
   7 C7            -0.1395    -4.2421    -0.1031 C.ar    
   8 C8            -1.3616    -4.8854     0.0066 C.ar    
   9 C9            -2.5281    -4.1556     0.1191 C.ar    
  10 C10           -2.4824    -2.7683     0.1293 C.ar    
  11 C11            1.4313     1.9607     0.0196 C.3     
  12 C12            2.1196     1.5662    -1.2900 C.3     
  13 C13            3.5365     2.1464    -1.3076 C.3     
  14 C14            3.4622     3.6663    -1.1448 C.3     
  15 N15            2.7963     3.9921     0.1228 N.3     
  16 C16            1.4180     3.4860     0.1440 C.3     
  17 C17            2.8301     5.4382     0.3788 C.3     
  18 C18            1.9861     6.1620    -0.6723 C.3     
  19 C19            2.0213     7.6682    -0.4057 C.3     
  20 C20            1.1900     8.3811    -1.4410 C.ar    
  21 C21           -0.1547     8.6061    -1.2124 C.ar    
  22 C22           -0.9172     9.2600    -2.1620 C.ar    
  23 C23           -0.3351     9.6893    -3.3400 C.ar    
  24 C24            1.0098     9.4651    -3.5682 C.ar    
  25 C25            1.7733     8.8151    -2.6167 C.ar    
  26 N26           -3.6579    -2.0302     0.2427 N.am    
  27 C27           -4.7931    -2.4787    -0.3287 C.2     
  28 C28           -6.0902    -1.7450    -0.1051 C.3     
  29 O29           -4.7707    -3.4729    -1.0230 O.2     
  30 H30           -0.5242     1.7957    -0.8690 H       
  31 H31           -0.5226     1.7916     0.9109 H       
  32 H32            0.8802    -2.3688    -0.1876 H       
  33 H33            0.7671    -4.8224    -0.1910 H       
  34 H34           -1.4020    -5.9646     0.0037 H       
  35 H35           -3.4768    -4.6647     0.2038 H       
  36 H36            1.9757     1.5312     0.8606 H       
  37 H37            2.1700     0.4798    -1.3622 H       
  38 H38            1.5533     1.9624    -2.1329 H       
  39 H39            4.1144     1.7204    -0.4875 H       
  40 H40            4.0168     1.9051    -2.2558 H       
  41 H41            4.4702     4.0810    -1.1426 H       
  42 H42            2.8959     4.0930    -1.9726 H       
  43 H43            0.8613     3.9135    -0.6899 H       
  44 H44            0.9413     3.7697     1.0822 H       
  45 H45            2.4271     5.6411     1.3710 H       
  46 H46            3.8595     5.7927     0.3252 H       
  47 H47            2.3891     5.9591    -1.6645 H       
  48 H48            0.9568     5.8075    -0.6187 H       
  49 H49            1.6183     7.8711     0.5865 H       
  50 H50            3.0506     8.0227    -0.4593 H       
  51 H51           -0.6095     8.2707    -0.2920 H       
  52 H52           -1.9679     9.4351    -1.9838 H       
  53 H53           -0.9310    10.1995    -4.0822 H       
  54 H54            1.4645     9.8002    -4.4887 H       
  55 H55            2.8240     8.6399    -2.7949 H       
  56 H56           -3.6596    -1.1932     0.7330 H       
  57 H57           -6.2166    -0.9866    -0.8778 H       
  58 H58           -6.9194    -2.4510    -0.1498 H       
  59 H59           -6.0728    -1.2665     0.8742 H       
@<TRIPOS>BOND
   1    1    2 1
   2    1   11 1
   3    1   30 1
   4    1   31 1
   5    2    3 1
   6    3    4 1
   7    3    5 2
   8    4    6 ar
   9    4   10 ar
  10    6    7 ar
  11    6   32 1
  12    7    8 ar
  13    7   33 1
  14    8    9 ar
  15    8   34 1
  16    9   10 ar
  17    9   35 1
  18   10   26 1
  19   11   12 1
  20   11   16 1
  21   11   36 1
  22   12   13 1
  23   12   37 1
  24   12   38 1
  25   13   14 1
  26   13   39 1
  27   13   40 1
  28   14   15 1
  29   14   41 1
  30   14   42 1
  31   15   16 1
  32   15   17 1
  33   16   43 1
  34   16   44 1
  35   17   18 1
  36   17   45 1
  37   17   46 1
  38   18   19 1
  39   18   47 1
  40   18   48 1
  41   19   20 1
  42   19   49 1
  43   19   50 1
  44   20   21 ar
  45   20   25 ar
  46   21   22 ar
  47   21   51 1
  48   22   23 ar
  49   22   52 1
  50   23   24 ar
  51   23   53 1
  52   24   25 ar
  53   24   54 1
  54   25   55 1
  55   26   27 am
  56   26   56 1
  57   27   28 1
  58   27   29 2
  59   28   57 1
  60   28   58 1
  61   28   59 1

#	End of record

