#	Name: ASD01410722
#	Creating user name:	WinNT
#	Creation time:	15. 06. 2019 19:18

#	Modifying user name:	WinNT
#	Modification time:	15. 06. 2019 19:18

#	Program:	/corina/corina34_cracker 3.40 0067  02.08.2006

@<TRIPOS>MOLECULE
ASD01410722
  84   90    0    0    0
SMALL
NO_CHARGES


@<TRIPOS>ATOM
   1 N1            -0.0204     1.6539     0.0111 N.am    
   2 O2            -1.9227     3.7250    -1.8984 O.3     
   3 N3            -3.5161     3.9488    -5.0459 N.am    
   4 S4             0.0021    -0.0041     0.0020 S.o2    
   5 O5            -1.1557    -0.4287     0.7081 O.2     
   6 N6            -0.2193    -0.4562    -1.5901 N.am    
   7 O7             1.3210    -0.3942     0.3567 O.2     
   8 C8            -0.4339    -1.7951    -1.8163 C.2     
   9 O9            -0.1583    -2.6496    -0.9929 O.2     
  10 C10           -1.0795    -2.1374    -3.0997 C.ar    
  11 C11           -1.3843    -3.4557    -3.4367 C.ar    
  12 C12           -2.0937    -3.7630    -4.5715 C.ar    
  13 C13           -2.5069    -2.6958    -5.3821 C.ar    
  14 C14           -2.0618    -1.3713    -5.1368 C.ar    
  15 C15           -1.3584    -1.0724    -3.9813 C.ar    
  16 C16           -3.3954    -2.6178    -6.4709 C.2     
  17 C17           -3.3924    -1.3489    -6.9418 C.2     
  18 N18           -2.4865    -0.6108    -6.1877 N.pl3   
  19 C19           -4.2165    -3.7837    -6.9664 C.3     
  20 C20           -3.2841    -4.9175    -7.3976 C.3     
  21 C21           -5.1327    -4.2757    -5.8442 C.3     
  22 C22           -5.9649    -5.4573    -6.3464 C.3     
  23 C23           -5.0325    -6.5911    -6.7775 C.3     
  24 C24           -4.1163    -6.0991    -7.8997 C.3     
  25 C25           -4.2042    -0.7689    -8.0296 C.ar    
  26 C26           -4.7324     0.5092    -8.0412 C.ar    
  27 C27           -4.5340     1.5428    -6.9687 C.3     
  28 C28           -3.2358     1.7248    -6.2364 C.3     
  29 C29           -2.0765     0.7530    -6.5257 C.3     
  30 C30           -2.7735     3.0657    -5.7565 C.2     
  31 O31           -1.6164     3.4024    -6.0377 O.2     
  32 C32           -4.4039    -1.5897    -9.1574 C.ar    
  33 C33           -5.1767    -1.1768   -10.2148 C.ar    
  34 C34           -5.7529     0.0872   -10.1938 C.ar    
  35 C35           -5.5204     0.9203    -9.1150 C.ar    
  36 O36           -6.5381     0.4999   -11.2220 O.3     
  37 C37           -6.7322    -0.4187   -12.2993 C.3     
  38 C38           -3.1015     4.0681    -2.6315 C.3     
  39 C39           -2.7201     4.6551    -3.9918 C.3     
  40 C40           -1.9242     2.4055    -1.3520 C.3     
  41 C41           -1.2806     2.3952     0.0332 C.3     
  42 C42            1.2479     2.3897     0.0030 C.3     
  43 C43           -4.4375     1.0879    -5.5184 C.3     
  44 C44           -4.9369     4.2412    -5.2143 C.3     
  45 H45           -0.1831     0.1957    -2.3074 H       
  46 H46           -1.0510    -4.2552    -2.7908 H       
  47 H47           -2.3216    -4.7886    -4.8285 H       
  48 H48           -1.0435    -0.0598    -3.7799 H       
  49 H49           -4.8209    -3.4672    -7.8165 H       
  50 H50           -2.6313    -4.5670    -8.1971 H       
  51 H51           -2.6797    -5.2340    -6.5475 H       
  52 H52           -4.5283    -4.5922    -4.9941 H       
  53 H53           -5.7970    -3.4679    -5.5370 H       
  54 H54           -6.6176    -5.8078    -5.5469 H       
  55 H55           -6.5693    -5.1408    -7.1964 H       
  56 H56           -4.4281    -6.9076    -5.9275 H       
  57 H57           -5.6253    -7.4329    -7.1353 H       
  58 H58           -4.7207    -5.7826    -8.7498 H       
  59 H59           -3.4520    -6.9069    -8.2069 H       
  60 H60           -5.1290     2.4433    -7.1364 H       
  61 H61           -1.2173     1.0380    -5.9214 H       
  62 H62           -1.8229     0.8112    -7.5818 H       
  63 H63           -3.9204    -2.5525    -9.2217 H       
  64 H64           -5.3353    -1.8332   -11.0583 H       
  65 H65           -5.9612     1.9060    -9.1027 H       
  66 H66           -7.3774     0.0348   -13.0517 H       
  67 H67           -5.7687    -0.6631   -12.7465 H       
  68 H68           -7.1986    -1.3285   -11.9214 H       
  69 H69           -3.7076     3.1741    -2.7781 H       
  70 H70           -3.6748     4.8052    -2.0674 H       
  71 H71           -1.6588     4.5027    -4.1764 H       
  72 H72           -2.9559     5.7174    -4.0190 H       
  73 H73           -2.9538     2.0519    -1.2753 H       
  74 H74           -1.3672     1.7428    -2.0133 H       
  75 H75           -1.9630     1.9301     0.7453 H       
  76 H76           -1.0867     3.4228     0.3462 H       
  77 H77            2.0778     1.6832    -0.0087 H       
  78 H78            1.2958     3.0213    -0.8841 H       
  79 H79            1.3128     3.0117     0.8957 H       
  80 H80           -4.9583     1.6635    -4.7577 H       
  81 H81           -4.4097     0.0121    -5.3285 H       
  82 H82           -5.5225     3.5752    -4.5806 H       
  83 H83           -5.1309     5.2758    -4.9312 H       
  84 H84           -5.2177     4.0910    -6.2567 H       
@<TRIPOS>BOND
   1    1    4 am
   2    1   42 1
   3    1   41 1
   4    2   38 1
   5    2   40 1
   6    3   30 am
   7    3   44 1
   8    3   39 1
   9    4    5 2
  10    4    6 am
  11    4    7 2
  12    6    8 am
  13    6   45 1
  14    8    9 2
  15    8   10 1
  16   10   11 ar
  17   10   15 ar
  18   11   12 ar
  19   11   46 1
  20   12   13 ar
  21   12   47 1
  22   13   14 ar
  23   13   16 1
  24   14   15 ar
  25   14   18 1
  26   15   48 1
  27   16   17 2
  28   16   19 1
  29   17   18 1
  30   17   25 1
  31   18   29 1
  32   19   20 1
  33   19   21 1
  34   19   49 1
  35   20   24 1
  36   20   50 1
  37   20   51 1
  38   21   22 1
  39   21   52 1
  40   21   53 1
  41   22   23 1
  42   22   54 1
  43   22   55 1
  44   23   24 1
  45   23   56 1
  46   23   57 1
  47   24   58 1
  48   24   59 1
  49   25   26 ar
  50   25   32 ar
  51   26   27 1
  52   26   35 ar
  53   27   28 1
  54   27   43 1
  55   27   60 1
  56   28   29 1
  57   28   43 1
  58   28   30 1
  59   29   61 1
  60   29   62 1
  61   30   31 2
  62   32   33 ar
  63   32   63 1
  64   33   34 ar
  65   33   64 1
  66   34   35 ar
  67   34   36 1
  68   35   65 1
  69   36   37 1
  70   37   66 1
  71   37   67 1
  72   37   68 1
  73   38   39 1
  74   38   69 1
  75   38   70 1
  76   39   71 1
  77   39   72 1
  78   40   41 1
  79   40   73 1
  80   40   74 1
  81   41   75 1
  82   41   76 1
  83   42   77 1
  84   42   78 1
  85   42   79 1
  86   43   80 1
  87   43   81 1
  88   44   82 1
  89   44   83 1
  90   44   84 1

#	End of record

