#	Name: ASD08150468
#	Creating user name:	WinNT
#	Creation time:	15. 06. 2019 21:16

#	Modifying user name:	WinNT
#	Modification time:	15. 06. 2019 21:16

#	Program:	/corina/corina34_cracker 3.40 0067  02.08.2006

@<TRIPOS>MOLECULE
ASD08150468
  32   33    0    0    0
SMALL
NO_CHARGES


@<TRIPOS>ATOM
   1 C1            -0.0159     1.3228     0.0093 C.ar    
   2 N2             0.0021    -0.0041     0.0020 N.ar    
   3 C3             1.1436    -0.6657    -0.0125 C.ar    
   4 C4             2.3448     0.0522    -0.0201 C.ar    
   5 C5             2.2824     1.4503    -0.0120 C.ar    
   6 N6             1.1014     2.0386     0.0025 N.ar    
   7 N7            -1.2299     1.9761     0.0186 N.pl3   
   8 O8             5.0363    -0.1046    -0.0462 O.3     
   9 B9             3.7272    -0.6918    -0.0369 Du      
  10 O10            3.9582    -2.1077    -0.0457 O.3     
  11 C11            5.0871    -2.2992     0.8327 C.3     
  12 C12            5.8180    -0.9411     0.8324 C.3     
  13 C13            7.2399    -1.1010     0.2906 C.3     
  14 C14            5.8473    -0.3510     2.2437 C.3     
  15 C15            4.6111    -2.6480     2.2443 C.3     
  16 C16            6.0037    -3.3980     0.2912 C.3     
  17 H17            1.1508    -1.7457    -0.0180 H       
  18 H18            3.1878     2.0391    -0.0176 H       
  19 H19           -2.0551     1.4663     0.0197 H       
  20 H20           -1.2588     2.9457     0.0240 H       
  21 H21            7.7224    -0.1248     0.2425 H       
  22 H22            7.8089    -1.7554     0.9510 H       
  23 H23            7.2014    -1.5369    -0.7077 H       
  24 H24            4.8285    -0.2589     2.6202 H       
  25 H25            6.4192    -1.0070     2.9000 H       
  26 H26            6.3149     0.6332     2.2165 H       
  27 H27            4.0472    -3.5804     2.2176 H       
  28 H28            5.4737    -2.7638     2.9005 H       
  29 H29            3.9731    -1.8483     2.6206 H       
  30 H30            6.3461    -3.1262    -0.7073 H       
  31 H31            6.8634    -3.5122     0.9515 H       
  32 H32            5.4547    -4.3384     0.2436 H       
@<TRIPOS>BOND
   1    1    2 ar
   2    1    6 ar
   3    1    7 1
   4    2    3 ar
   5    3    4 ar
   6    3   17 1
   7    4    5 ar
   8    4    9 1
   9    5    6 ar
  10    5   18 1
  11    7   19 1
  12    7   20 1
  13    8    9 1
  14    8   12 1
  15    9   10 1
  16   10   11 1
  17   11   12 1
  18   11   15 1
  19   11   16 1
  20   12   13 1
  21   12   14 1
  22   13   21 1
  23   13   22 1
  24   13   23 1
  25   14   24 1
  26   14   25 1
  27   14   26 1
  28   15   27 1
  29   15   28 1
  30   15   29 1
  31   16   30 1
  32   16   31 1
  33   16   32 1

#	End of record

