#	Name: ASD01882224
#	Creating user name:	WinNT
#	Creation time:	15. 06. 2019 19:44

#	Modifying user name:	WinNT
#	Modification time:	15. 06. 2019 19:44

#	Program:	/corina/corina34_cracker 3.40 0067  02.08.2006

@<TRIPOS>MOLECULE
ASD01882224
  42   44    0    0    0
SMALL
NO_CHARGES


@<TRIPOS>ATOM
   1 C1            -0.0159     1.3220     0.0093 C.2     
   2 N2             0.0021    -0.0041     0.0020 N.2     
   3 C3             1.1523    -0.6857    -0.0126 C.2     
   4 C4             2.3835     0.0173    -0.0206 C.2     
   5 C5             2.3523     1.3664    -0.0131 C.2     
   6 N6             1.1484     2.0132     0.0019 N.pl3   
   7 O7            -1.0993     2.1290     0.0184 O.3     
   8 C8             0.8540     3.4562     0.0125 C.3     
   9 C9            -0.6831     3.5211     0.0242 C.3     
  10 O10            1.1423    -1.9071    -0.0187 O.2     
  11 C11           -1.1835     4.2242     1.2877 C.3     
  12 O12           -2.6102     4.2985     1.2581 O.3     
  13 C13           -3.2188     4.8985     2.3147 C.ar    
  14 C14           -4.6015     5.0053     2.3514 C.ar    
  15 C15           -5.2177     5.6157     3.4266 C.ar    
  16 C16           -4.4576     6.1200     4.4657 C.ar    
  17 C17           -3.0794     6.0153     4.4313 C.ar    
  18 C18           -2.4587     5.4003     3.3613 C.ar    
  19 C19           -5.1325     6.7854     5.6374 C.3     
  20 C20           -6.0740     5.7891     6.3168 C.3     
  21 C21           -4.0736     7.2509     6.6388 C.3     
  22 C22           -5.9350     7.9918     5.1460 C.3     
  23 H23            3.3237    -0.5140    -0.0321 H       
  24 H24            3.2727     1.9314    -0.0185 H       
  25 H25            1.2651     3.9237     0.9072 H       
  26 H26            1.2480     3.9334    -0.8848 H       
  27 H27           -1.0474     4.0318    -0.8672 H       
  28 H28           -0.8671     3.6616     2.1660 H       
  29 H29           -0.7680     5.2309     1.3319 H       
  30 H30           -5.1957     4.6119     1.5399 H       
  31 H31           -6.2941     5.6994     3.4554 H       
  32 H32           -2.4878     6.4106     5.2438 H       
  33 H33           -1.3824     5.3143     3.3372 H       
  34 H34           -5.5023     4.9296     6.6669 H       
  35 H35           -6.5621     6.2703     7.1643 H       
  36 H36           -6.8284     5.4575     5.6034 H       
  37 H37           -3.4028     7.9607     6.1548 H       
  38 H38           -4.5617     7.7322     7.4863 H       
  39 H39           -3.5019     6.3914     6.9889 H       
  40 H40           -6.6893     7.6602     4.4325 H       
  41 H41           -6.4231     8.4731     5.9935 H       
  42 H42           -5.2642     8.7017     4.6619 H       
@<TRIPOS>BOND
   1    1    2 2
   2    1    6 1
   3    1    7 1
   4    2    3 1
   5    3    4 1
   6    3   10 2
   7    4    5 2
   8    4   23 1
   9    5    6 1
  10    5   24 1
  11    6    8 1
  12    7    9 1
  13    8    9 1
  14    8   25 1
  15    8   26 1
  16    9   11 1
  17    9   27 1
  18   11   12 1
  19   11   28 1
  20   11   29 1
  21   12   13 1
  22   13   14 ar
  23   13   18 ar
  24   14   15 ar
  25   14   30 1
  26   15   16 ar
  27   15   31 1
  28   16   17 ar
  29   16   19 1
  30   17   18 ar
  31   17   32 1
  32   18   33 1
  33   19   20 1
  34   19   22 1
  35   19   21 1
  36   20   34 1
  37   20   35 1
  38   20   36 1
  39   21   37 1
  40   21   38 1
  41   21   39 1
  42   22   40 1
  43   22   41 1
  44   22   42 1

#	End of record

