#	Name: ASD01883850
#	Creating user name:	WinNT
#	Creation time:	15. 06. 2019 19:47

#	Modifying user name:	WinNT
#	Modification time:	15. 06. 2019 19:47

#	Program:	/corina/corina34_cracker 3.40 0067  02.08.2006

@<TRIPOS>MOLECULE
ASD01883850
  44   48    0    0    0
SMALL
NO_CHARGES


@<TRIPOS>ATOM
   1 O1            -0.0163     1.3537     0.0095 O.3     
   2 C2             0.1828     0.0144    -0.0936 C.2     
   3 C3             1.6333    -1.8800    -0.2626 C.2     
   4 C4             1.4520    -0.4890    -0.1566 C.2     
   5 C5            -0.9184    -0.8654    -0.1304 C.2     
   6 C6            -0.7233    -2.1954    -0.2318 C.2     
   7 N7             2.3384    -3.8857    -0.4260 N.2     
   8 N8             2.7040    -2.6549    -0.3421 N.2     
   9 N9             0.5389    -2.7090    -0.3002 N.pl3   
  10 C10            1.0343    -3.9747    -0.4044 C.2     
  11 C11            0.2264    -5.2445    -0.4811 C.3     
  12 C12           -0.0164    -5.7806     0.9312 C.3     
  13 C13           -0.9213    -7.0058     1.0759 C.3     
  14 C14            0.5884    -7.1409     1.2841 C.3     
  15 Cl15           2.8230     0.5747    -0.1069 Cl      
  16 C16           -0.6538     2.0016    -1.0932 C.3     
  17 C17           -0.6847     3.4889    -0.8525 C.ar    
  18 C18            0.3496     4.2599    -1.2870 C.ar    
  19 C19            0.3241     5.6469    -1.0642 C.ar    
  20 C20           -0.7814     6.2220    -0.3888 C.ar    
  21 C21           -1.8304     5.3940     0.0450 C.ar    
  22 C22           -1.7740     4.0549    -0.1935 C.ar    
  23 C23            1.3735     6.4754    -1.4975 C.ar    
  24 C24            1.3145     7.8148    -1.2636 C.ar    
  25 C25            0.2276     8.3801    -0.5992 C.ar    
  26 C26           -0.8068     7.6094    -0.1656 C.ar    
  27 H27           -1.9227    -0.4720    -0.0768 H       
  28 H28           -1.5738    -2.8605    -0.2589 H       
  29 H29           -0.7304    -5.0379    -0.9608 H       
  30 H30            0.7717    -5.9875    -1.0630 H       
  31 H31           -0.0581    -5.0283     1.7189 H       
  32 H32           -1.5580    -7.0598     1.9590 H       
  33 H33           -1.3437    -7.4299     0.1649 H       
  34 H34            1.1593    -7.6540     0.5102 H       
  35 H35            0.9450    -7.2838     2.3042 H       
  36 H36           -0.0986     1.7929    -2.0077 H       
  37 H37           -1.6731     1.6286    -1.1939 H       
  38 H38            1.1856     3.8078    -1.8000 H       
  39 H39           -2.6789     5.8182     0.5612 H       
  40 H40           -2.5818     3.4207     0.1406 H       
  41 H41            2.2225     6.0513    -2.0131 H       
  42 H42            2.1223     8.4491    -1.5977 H       
  43 H43            0.2058     9.4460    -0.4261 H       
  44 H44           -1.6429     8.0615     0.3473 H       
@<TRIPOS>BOND
   1    1    2 1
   2    1   16 1
   3    2    5 1
   4    2    4 2
   5    3    4 1
   6    3    9 1
   7    3    8 2
   8    4   15 1
   9    5    6 2
  10    5   27 1
  11    6    9 1
  12    6   28 1
  13    7    8 1
  14    7   10 2
  15    9   10 1
  16   10   11 1
  17   11   12 1
  18   11   29 1
  19   11   30 1
  20   12   13 1
  21   12   14 1
  22   12   31 1
  23   13   14 1
  24   13   32 1
  25   13   33 1
  26   14   34 1
  27   14   35 1
  28   16   17 1
  29   16   36 1
  30   16   37 1
  31   17   18 ar
  32   17   22 ar
  33   18   19 ar
  34   18   38 1
  35   19   20 ar
  36   19   23 ar
  37   20   21 ar
  38   20   26 ar
  39   21   22 ar
  40   21   39 1
  41   22   40 1
  42   23   24 ar
  43   23   41 1
  44   24   25 ar
  45   24   42 1
  46   25   26 ar
  47   25   43 1
  48   26   44 1

#	End of record

