#	Name: ASD07930665
#	Creating user name:	WinNT
#	Creation time:	15. 06. 2019 21:12

#	Modifying user name:	WinNT
#	Modification time:	15. 06. 2019 21:12

#	Program:	/corina/corina34_cracker 3.40 0067  02.08.2006

@<TRIPOS>MOLECULE
ASD07930665
  48   50    0    0    0
SMALL
NO_CHARGES


@<TRIPOS>ATOM
   1 C1            -0.0470     1.4695     0.0229 C.3     
   2 N2             0.7875    -0.4063    -2.1441 N.2     
   3 N3            -0.8967    -1.7769    -1.2803 N.pl3   
   4 C4            -0.9205    -2.8178    -0.2474 C.3     
   5 C5            -1.2378    -2.1762     1.1104 C.3     
   6 S6            -0.0041    -0.8762     1.4300 S.o2    
   7 N7            -0.0244     0.0047     0.0158 N.am    
   8 C8            -0.0194    -0.7177    -1.1690 C.2     
   9 C9             0.4455    -3.5037    -0.1816 C.3     
  10 C10           -1.9800    -3.8356    -0.5829 C.ar    
  11 C11           -2.3028    -4.0855    -1.9022 C.ar    
  12 C12           -3.2795    -5.0237    -2.2121 C.ar    
  13 C13           -3.9291    -5.7082    -1.1938 C.ar    
  14 C14           -3.6018    -5.4539     0.1261 C.ar    
  15 C15           -2.6236    -4.5219     0.4303 C.ar    
  16 O16           -0.4702     0.0287     2.4216 O.2     
  17 O17            1.3046    -1.4266     1.4896 O.2     
  18 N18           -3.6080    -5.2778    -3.5474 N.am    
  19 C19           -3.9497    -6.5235    -3.9320 C.2     
  20 O20           -3.8789    -7.4445    -3.1418 O.2     
  21 C21           -4.4106    -6.7699    -5.3153 C.ar    
  22 N22           -4.4883    -5.7612    -6.1815 N.ar    
  23 C23           -4.8985    -5.9813    -7.4120 C.ar    
  24 C24           -5.2528    -7.2714    -7.8103 C.ar    
  25 N25           -5.1761    -8.2770    -6.9493 N.ar    
  26 C26           -4.7587    -8.0596    -5.7155 C.ar    
  27 O27           -5.6759    -7.4962    -9.0777 O.3     
  28 C28           -6.0223    -8.8404    -9.4171 C.3     
  29 F29           -4.2331    -6.1186     1.1185 F       
  30 H30            0.9749     1.8487     0.0197 H       
  31 H31           -0.5707     1.8291    -0.8629 H       
  32 H32           -0.5621     1.8206     0.9170 H       
  33 H33            1.3980     0.3414    -2.0484 H       
  34 H34           -1.4938    -1.8351    -2.0425 H       
  35 H35           -2.2355    -1.7378     1.0855 H       
  36 H36           -1.1873    -2.9316     1.8946 H       
  37 H37            1.2106    -2.7669     0.0631 H       
  38 H38            0.4272    -4.2772     0.5862 H       
  39 H39            0.6720    -3.9557    -1.1473 H       
  40 H40           -1.7964    -3.5516    -2.6927 H       
  41 H41           -4.6890    -6.4378    -1.4317 H       
  42 H42           -2.3689    -4.3247     1.4612 H       
  43 H43           -3.5901    -4.5575    -4.1968 H       
  44 H44           -4.9615    -5.1633    -8.1143 H       
  45 H45           -4.6962    -8.8784    -5.0140 H       
  46 H46           -5.1543    -9.4851    -9.2794 H       
  47 H47           -6.8332    -9.1804    -8.7729 H       
  48 H48           -6.3437    -8.8811   -10.4579 H       
@<TRIPOS>BOND
   1    1    7 1
   2    1   30 1
   3    1   31 1
   4    1   32 1
   5    2    8 2
   6    2   33 1
   7    3    4 1
   8    3    8 1
   9    3   34 1
  10    4    5 1
  11    4    9 1
  12    4   10 1
  13    5    6 1
  14    5   35 1
  15    5   36 1
  16    6    7 am
  17    6   16 2
  18    6   17 2
  19    7    8 1
  20    9   37 1
  21    9   38 1
  22    9   39 1
  23   10   11 ar
  24   10   15 ar
  25   11   12 ar
  26   11   40 1
  27   12   13 ar
  28   12   18 1
  29   13   14 ar
  30   13   41 1
  31   14   15 ar
  32   14   29 1
  33   15   42 1
  34   18   19 am
  35   18   43 1
  36   19   20 2
  37   19   21 1
  38   21   22 ar
  39   21   26 ar
  40   22   23 ar
  41   23   24 ar
  42   23   44 1
  43   24   25 ar
  44   24   27 1
  45   25   26 ar
  46   26   45 1
  47   27   28 1
  48   28   46 1
  49   28   47 1
  50   28   48 1

#	End of record

