#	Name: ASD04842007
#	Creating user name:	WinNT
#	Creation time:	15. 06. 2019 20:52

#	Modifying user name:	WinNT
#	Modification time:	15. 06. 2019 20:52

#	Program:	/corina/corina34_cracker 3.40 0067  02.08.2006

@<TRIPOS>MOLECULE
ASD04842007
  24   25    0    0    0
SMALL
NO_CHARGES


@<TRIPOS>ATOM
   1 C1            -0.0184     1.5028     0.0103 C.2     
   2 C2             0.0021    -0.0041     0.0020 C.3     
   3 C3            -0.7241    -0.5171    -1.2431 C.3     
   4 O4             1.0197     2.1211     0.0037 O.2     
   5 O5            -1.1898     2.1580     0.0194 O.3     
   6 C6             3.8545    -1.0363    -0.4853 C.ar    
   7 C7             3.3622    -1.5922     0.6984 C.ar    
   8 C8             1.9675    -1.2458     0.9196 C.2     
   9 C9             1.4295    -0.4870    -0.0142 C.2     
  10 S10            2.5850    -0.1114    -1.2777 S.3     
  11 C11            4.2258    -2.3782     1.4930 C.ar    
  12 C12            5.5249    -2.5887     1.1041 C.ar    
  13 C13            6.0054    -2.0321    -0.0733 C.ar    
  14 C14            5.1802    -1.2685    -0.8645 C.ar    
  15 Cl15           3.6413    -3.0807     2.9689 Cl      
  16 H16           -0.4983    -0.3791     0.8948 H       
  17 H17           -0.2237    -0.1421    -2.1359 H       
  18 H18           -0.7093    -1.6070    -1.2491 H       
  19 H19           -1.7565    -0.1678    -1.2314 H       
  20 H20           -1.1523     3.1243     0.0245 H       
  21 H21            1.4144    -1.5847     1.7832 H       
  22 H22            6.1779    -3.1911     1.7182 H       
  23 H23            7.0295    -2.2028    -0.3708 H       
  24 H24            5.5604    -0.8387    -1.7794 H       
@<TRIPOS>BOND
   1    1    2 1
   2    1    4 2
   3    1    5 1
   4    2    3 1
   5    2    9 1
   6    2   16 1
   7    3   17 1
   8    3   18 1
   9    3   19 1
  10    5   20 1
  11    6    7 ar
  12    6   10 1
  13    6   14 ar
  14    7    8 1
  15    7   11 ar
  16    8    9 2
  17    8   21 1
  18    9   10 1
  19   11   12 ar
  20   11   15 1
  21   12   13 ar
  22   12   22 1
  23   13   14 ar
  24   13   23 1
  25   14   24 1

#	End of record

