#	Name: ASD01881533
#	Creating user name:	WinNT
#	Creation time:	15. 06. 2019 19:42

#	Modifying user name:	WinNT
#	Modification time:	15. 06. 2019 19:42

#	Program:	/corina/corina34_cracker 3.40 0067  02.08.2006

@<TRIPOS>MOLECULE
ASD01881533
  53   57    0    0    0
SMALL
NO_CHARGES


@<TRIPOS>ATOM
   1 O1            -0.0176     1.4488     0.0100 O.3     
   2 C2             0.0021    -0.0041     0.0020 C.3     
   3 C3             1.4984    -0.3617    -0.0152 C.3     
   4 N4             2.1756     0.9460    -0.0152 N.pl3   
   5 C5             1.2453     1.9287     0.0005 C.2     
   6 C6             3.5135     1.2365    -0.0285 C.2     
   7 C7             3.9100     2.5243    -0.0237 C.2     
   8 C8             2.9181     3.5385    -0.0058 C.2     
   9 N9             1.6251     3.1994     0.0057 N.2     
  10 O10            3.2440     4.7157     0.0001 O.2     
  11 C11           -0.6914    -0.5420    -1.2512 C.3     
  12 O12           -2.0835    -0.2236    -1.1991 O.3     
  13 C13           -2.8496    -0.6331    -2.2442 C.ar    
  14 C14           -4.2093    -0.3578    -2.2589 C.ar    
  15 C15           -4.9859    -0.7751    -3.3224 C.ar    
  16 C16           -4.4092    -1.4667    -4.3717 C.ar    
  17 C17           -3.0544    -1.7426    -4.3592 C.ar    
  18 C18           -2.2723    -1.3221    -3.3010 C.ar    
  19 C19           -5.2587    -1.9208    -5.5306 C.3     
  20 C20           -4.7400    -1.2863    -6.8226 C.3     
  21 C21           -5.1897    -3.4448    -5.6473 C.3     
  22 C22           -5.6025    -1.7474    -7.9992 C.3     
  23 C23           -5.5334    -3.2714    -8.1159 C.3     
  24 C24           -6.0522    -3.9058    -6.8239 C.3     
  25 C25            4.7160     0.3185    -0.0490 C.3     
  26 C26            5.8956     1.2135    -0.4888 C.3     
  27 C27            5.4189     2.6127    -0.0402 C.3     
  28 H28           -0.4736    -0.3969     0.9006 H       
  29 H29            1.7658    -0.9308     0.8752 H       
  30 H30            1.7474    -0.9212    -0.9169 H       
  31 H31           -0.2473    -0.0862    -2.1362 H       
  32 H32           -0.5677    -1.6239    -1.2989 H       
  33 H33           -4.6603     0.1820    -1.4394 H       
  34 H34           -6.0445    -0.5614    -3.3341 H       
  35 H35           -2.6064    -2.2836    -5.1796 H       
  36 H36           -1.2141    -1.5379    -3.2917 H       
  37 H37           -6.2920    -1.6155    -5.3653 H       
  38 H38           -4.7892    -0.2006    -6.7395 H       
  39 H39           -3.7068    -1.5916    -6.9880 H       
  40 H40           -4.1564    -3.7500    -5.8126 H       
  41 H41           -5.5592    -3.8967    -4.7268 H       
  42 H42           -6.6357    -1.4421    -7.8339 H       
  43 H43           -5.2330    -1.2954    -8.9197 H       
  44 H44           -6.1479    -3.5998    -8.9541 H       
  45 H45           -4.5002    -3.5766    -8.2812 H       
  46 H46           -6.0030    -4.9915    -6.9070 H       
  47 H47           -7.0854    -3.6005    -6.6585 H       
  48 H48            4.8993    -0.0878     0.9457 H       
  49 H49            4.5646    -0.4880    -0.7665 H       
  50 H50            6.8130     0.9304     0.0274 H       
  51 H51            6.0311     1.1761    -1.5697 H       
  52 H52            5.7463     3.3707    -0.7518 H       
  53 H53            5.7961     2.8399     0.9569 H       
@<TRIPOS>BOND
   1    1    2 1
   2    1    5 1
   3    2    3 1
   4    2   11 1
   5    2   28 1
   6    3    4 1
   7    3   29 1
   8    3   30 1
   9    4    5 1
  10    4    6 1
  11    5    9 2
  12    6    7 2
  13    6   25 1
  14    7    8 1
  15    7   27 1
  16    8    9 1
  17    8   10 2
  18   11   12 1
  19   11   31 1
  20   11   32 1
  21   12   13 1
  22   13   14 ar
  23   13   18 ar
  24   14   15 ar
  25   14   33 1
  26   15   16 ar
  27   15   34 1
  28   16   17 ar
  29   16   19 1
  30   17   18 ar
  31   17   35 1
  32   18   36 1
  33   19   20 1
  34   19   21 1
  35   19   37 1
  36   20   22 1
  37   20   38 1
  38   20   39 1
  39   21   24 1
  40   21   40 1
  41   21   41 1
  42   22   23 1
  43   22   42 1
  44   22   43 1
  45   23   24 1
  46   23   44 1
  47   23   45 1
  48   24   46 1
  49   24   47 1
  50   25   26 1
  51   25   48 1
  52   25   49 1
  53   26   27 1
  54   26   50 1
  55   26   51 1
  56   27   52 1
  57   27   53 1

#	End of record

