#	Name: ASD03082275
#	Creating user name:	WinNT
#	Creation time:	15. 06. 2019 20:27

#	Modifying user name:	WinNT
#	Modification time:	15. 06. 2019 20:27

#	Program:	/corina/corina34_cracker 3.40 0067  02.08.2006

@<TRIPOS>MOLECULE
ASD03082275
  58   61    0    0    0
SMALL
NO_CHARGES


@<TRIPOS>ATOM
   1 N1             0.0112     1.3996     0.2486 N.am    
   2 N2             0.0088    -0.0000     0.1321 N.2     
   3 C3             1.2298    -0.3612    -0.1845 C.2     
   4 N4             2.0023     0.7251    -0.2747 N.2     
   5 C5             1.2889     1.8018    -0.0174 C.2     
   6 N6             1.6544    -1.6726    -0.3933 N.pl3   
   7 C7             0.7805    -2.7365    -0.1542 C.ar    
   8 C8             0.9549    -3.9425    -0.8197 C.ar    
   9 C9             0.0861    -4.9950    -0.5799 C.ar    
  10 C10           -0.9559    -4.8417     0.3244 C.ar    
  11 C11           -1.1281    -3.6408     0.9859 C.ar    
  12 C12           -0.2608    -2.5907     0.7540 C.ar    
  13 O13            0.2538    -6.1766    -1.2299 O.3     
  14 C14            1.7820     3.1948    -0.0172 C.ar    
  15 C15           -1.0380     2.1878     0.5555 C.2     
  16 C16            3.0769     3.4787     0.4193 C.ar    
  17 C17            3.5357     4.7843     0.4185 C.ar    
  18 C18            2.7062     5.8121    -0.0206 C.ar    
  19 C19            1.4171     5.5287    -0.4538 C.ar    
  20 C20            0.9559     4.2299    -0.4592 C.ar    
  21 N21           -2.2684     1.6527     0.6828 N.am    
  22 C22           -3.4090     2.5095     1.0164 C.3     
  23 O23           -0.8747     3.3810     0.7174 O.2     
  24 C24           -4.6782     1.6593     1.1002 C.3     
  25 O25            4.7984     5.0466     0.8546 O.3     
  26 C26            5.3548     6.3145     0.4905 C.3     
  27 C27            4.2995     7.3965     0.7564 C.3     
  28 O28            3.1442     7.1003    -0.0353 O.3     
  29 N29           -5.8219     2.5185     1.4347 N.3     
  30 C30           -7.0884     1.7881     1.2925 C.3     
  31 C31           -5.6842     3.0753     2.7871 C.3     
  32 C32           -0.6788    -7.2180    -0.9339 C.3     
  33 F33           -1.9717    -6.7917    -1.2564 F       
  34 F34           -0.3619    -8.3552    -1.6846 F       
  35 F35           -0.6160    -7.5266     0.4292 F       
  36 H36            2.5565    -1.8465    -0.7046 H       
  37 H37            1.7659    -4.0599    -1.5232 H       
  38 H38           -1.6331    -5.6620     0.5109 H       
  39 H39           -1.9397    -3.5243     1.6888 H       
  40 H40           -0.3950    -1.6546     1.2756 H       
  41 H41            3.7203     2.6801     0.7578 H       
  42 H42            0.7752     6.3288    -0.7919 H       
  43 H43           -0.0470     4.0141    -0.7967 H       
  44 H44           -2.3988     0.7002     0.5535 H       
  45 H45           -3.2314     2.9930     1.9770 H       
  46 H46           -3.5308     3.2692     0.2442 H       
  47 H47           -4.8558     1.1758     0.1396 H       
  48 H48           -4.5564     0.8997     1.8723 H       
  49 H49            6.2431     6.5120     1.0904 H       
  50 H50            5.6183     6.3101    -0.5672 H       
  51 H51            4.0311     7.3964     1.8129 H       
  52 H52            4.6958     8.3729     0.4775 H       
  53 H53           -7.0893     0.9284     1.9626 H       
  54 H54           -7.9185     2.4474     1.5461 H       
  55 H55           -7.1972     1.4464     0.2631 H       
  56 H56           -4.7722     3.6694     2.8443 H       
  57 H57           -6.5441     3.7073     3.0091 H       
  58 H58           -5.6343     2.2623     3.5114 H       
@<TRIPOS>BOND
   1    1    2 1
   2    1    5 1
   3    1   15 am
   4    2    3 2
   5    3    4 1
   6    3    6 1
   7    4    5 2
   8    5   14 1
   9    6    7 1
  10    6   36 1
  11    7    8 ar
  12    7   12 ar
  13    8    9 ar
  14    8   37 1
  15    9   10 ar
  16    9   13 1
  17   10   11 ar
  18   10   38 1
  19   11   12 ar
  20   11   39 1
  21   12   40 1
  22   13   32 1
  23   14   16 ar
  24   14   20 ar
  25   15   21 am
  26   15   23 2
  27   16   17 ar
  28   16   41 1
  29   17   18 ar
  30   17   25 1
  31   18   19 ar
  32   18   28 1
  33   19   20 ar
  34   19   42 1
  35   20   43 1
  36   21   22 1
  37   21   44 1
  38   22   24 1
  39   22   45 1
  40   22   46 1
  41   24   29 1
  42   24   47 1
  43   24   48 1
  44   25   26 1
  45   26   27 1
  46   26   49 1
  47   26   50 1
  48   27   28 1
  49   27   51 1
  50   27   52 1
  51   29   30 1
  52   29   31 1
  53   30   53 1
  54   30   54 1
  55   30   55 1
  56   31   56 1
  57   31   57 1
  58   31   58 1
  59   32   33 1
  60   32   34 1
  61   32   35 1

#	End of record

