#	Name: ASD01870052
#	Creating user name:	WinNT
#	Creation time:	15. 06. 2019 19:38

#	Modifying user name:	WinNT
#	Modification time:	15. 06. 2019 19:38

#	Program:	/corina/corina34_cracker 3.40 0067  02.08.2006

@<TRIPOS>MOLECULE
ASD01870052
  46   49    0    0    0
SMALL
NO_CHARGES


@<TRIPOS>ATOM
   1 C1            -0.0165     1.3753    -0.0482 C.ar    
   2 C2             0.0020    -0.0019     0.0612 C.ar    
   3 N3             1.1351    -0.6642     0.1295 N.ar    
   4 C4             2.3258    -0.0534     0.0977 C.ar    
   5 C5             2.3957     1.3312    -0.0110 C.ar    
   6 C6             1.1853     2.0687    -0.0864 C.ar    
   7 S7             3.9414    -0.7419     0.1749 S.3     
   8 C8             4.7118     0.8304     0.0610 C.2     
   9 C9             3.7719     1.8345    -0.0317 C.2     
  10 C10            6.0887     1.1811     0.0517 C.2     
  11 N11            6.4256     2.4824    -0.0475 N.am    
  12 C12            5.4574     3.4295    -0.1361 C.2     
  13 N13            4.1964     3.1242    -0.1288 N.2     
  14 N14            1.2031     3.4519    -0.1957 N.3     
  15 C15            7.8371     2.8747    -0.0592 C.3     
  16 O16            6.9496     0.3208     0.1323 O.2     
  17 C17            0.5407     3.8908    -1.4313 C.3     
  18 C18            0.5906     4.0810     0.9820 C.3     
  19 C19            8.1527     3.6049    -1.3661 C.3     
  20 C20            7.2754     4.8534    -1.4774 C.3     
  21 C21            7.5566     5.7815    -0.2940 C.3     
  22 C22            7.2411     5.0513     1.0130 C.3     
  23 C23            8.1183     3.8027     1.1243 C.3     
  24 C24            7.5223     5.9793     2.1964 C.3     
  25 H25           -0.9553     1.9059    -0.1078 H       
  26 H26           -0.9317    -0.5439     0.0915 H       
  27 H27            5.7450     4.4675    -0.2146 H       
  28 H28            8.4620     1.9852     0.0201 H       
  29 H29           -0.4958     3.5538    -1.4273 H       
  30 H30            0.5689     4.9787    -1.4918 H       
  31 H31            1.0578     3.4655    -2.2915 H       
  32 H32            1.1438     3.7939     1.8762 H       
  33 H33            0.6176     5.1649     0.8703 H       
  34 H34           -0.4442     3.7508     1.0734 H       
  35 H35            9.2028     3.8967    -1.3748 H       
  36 H36            7.9523     2.9437    -2.2093 H       
  37 H37            7.5002     5.3737    -2.4085 H       
  38 H38            6.2252     4.5616    -1.4687 H       
  39 H39            8.6068     6.0733    -0.3027 H       
  40 H40            6.9317     6.6710    -0.3732 H       
  41 H41            6.1909     4.7594     1.0217 H       
  42 H42            7.8935     3.2825     2.0553 H       
  43 H43            9.1685     4.0945     1.1156 H       
  44 H44            6.8973     6.8688     2.1172 H       
  45 H45            7.2975     5.4591     3.1275 H       
  46 H46            8.5725     6.2711     2.1877 H       
@<TRIPOS>BOND
   1    1    2 ar
   2    1    6 ar
   3    1   25 1
   4    2    3 ar
   5    2   26 1
   6    3    4 ar
   7    4    5 ar
   8    4    7 1
   9    5    6 ar
  10    5    9 1
  11    6   14 1
  12    7    8 1
  13    8    9 2
  14    8   10 1
  15    9   13 1
  16   10   11 am
  17   10   16 2
  18   11   12 1
  19   11   15 1
  20   12   13 2
  21   12   27 1
  22   14   17 1
  23   14   18 1
  24   15   19 1
  25   15   23 1
  26   15   28 1
  27   17   29 1
  28   17   30 1
  29   17   31 1
  30   18   32 1
  31   18   33 1
  32   18   34 1
  33   19   20 1
  34   19   35 1
  35   19   36 1
  36   20   21 1
  37   20   37 1
  38   20   38 1
  39   21   22 1
  40   21   39 1
  41   21   40 1
  42   22   23 1
  43   22   24 1
  44   22   41 1
  45   23   42 1
  46   23   43 1
  47   24   44 1
  48   24   45 1
  49   24   46 1

#	End of record

