#	Name: ASD01209002
#	Creating user name:	WinNT
#	Creation time:	15. 06. 2019 19:10

#	Modifying user name:	WinNT
#	Modification time:	15. 06. 2019 19:10

#	Program:	/corina/corina34_cracker 3.40 0067  02.08.2006

@<TRIPOS>MOLECULE
ASD01209002
  55   59    0    0    0
SMALL
NO_CHARGES


@<TRIPOS>ATOM
   1 C1            -2.0858     1.7064     0.3995 C.3     
   2 C2            -2.0276     0.2366     0.8268 C.3     
   3 C3            -1.2114    -0.5608    -0.1924 C.3     
   4 C4            -1.3160    -2.0536     0.1262 C.3     
   5 C5            -0.6326    -2.3361     1.4393 C.2     
   6 N6             0.6524    -1.9732     1.6220 N.am    
   7 C7             1.3163    -2.3301     2.7905 C.2     
   8 N8            -2.7274    -2.4356     0.2181 N.pl3   
   9 N9            -3.4826    -2.9774    -0.8282 N.2     
  10 C10           -4.7109    -3.2028    -0.3989 C.ar    
  11 C11           -4.7519    -2.7811     1.0101 C.ar    
  12 C12           -3.4843    -2.3232     1.3180 C.2     
  13 O13           -1.2391    -2.8900     2.3318 O.2     
  14 S14            2.9405    -1.9378     3.1524 S.3     
  15 C15            2.8076    -2.7685     4.7003 C.2     
  16 C16            1.5696    -3.2587     4.8020 C.2     
  17 N17            0.7920    -3.0034     3.7655 N.2     
  18 Cl18           4.0664    -2.9236     5.8856 Cl      
  19 C19           -1.3617     0.1425     2.2031 C.3     
  20 C20           -2.1404     1.0065     3.1984 C.3     
  21 O21           -2.1828     2.3544     2.7256 O.3     
  22 C22           -2.8366     2.5101     1.4645 C.3     
  23 C23           -5.8859    -3.7247    -0.9814 C.ar    
  24 C24           -7.0153    -3.8250    -0.2369 C.ar    
  25 C25           -7.0535    -3.4245     1.1007 C.ar    
  26 C26           -5.9622    -2.9137     1.7238 C.ar    
  27 S27           -6.0547    -2.4204     3.4129 S.o2    
  28 C28           -4.9363    -3.5567     4.2782 C.3     
  29 O29           -5.5291    -1.1002     3.4217 O.2     
  30 O30           -7.4042    -2.6741     3.7786 O.2     
  31 C31           -4.8785    -3.4654     5.8043 C.3     
  32 C32           -5.5692    -4.6551     5.1348 C.3     
  33 H33           -1.0731     2.0960     0.2958 H       
  34 H34           -2.6078     1.7882    -0.5539 H       
  35 H35           -3.0384    -0.1676     0.8810 H       
  36 H36           -1.5994    -0.3750    -1.1939 H       
  37 H37           -0.1674    -0.2513    -0.1439 H       
  38 H38           -0.8348    -2.6286    -0.6649 H       
  39 H39            1.1142    -1.4631     0.9383 H       
  40 H40           -3.1629    -1.9371     2.2740 H       
  41 H41            1.2307    -3.8149     5.6635 H       
  42 H42           -1.3658    -0.8943     2.5396 H       
  43 H43           -0.3343     0.5004     2.1358 H       
  44 H44           -3.1561     0.6232     3.2955 H       
  45 H45           -1.6463     0.9773     4.1695 H       
  46 H46           -2.8439     3.5640     1.1865 H       
  47 H47           -3.8614     2.1465     1.5389 H       
  48 H48           -5.8858    -4.0420    -2.0138 H       
  49 H49           -7.9097    -4.2253    -0.6910 H       
  50 H50           -7.9762    -3.5237     1.6532 H       
  51 H51           -4.0120    -3.7973     3.7530 H       
  52 H52           -3.9162    -3.6463     6.2833 H       
  53 H53           -5.5125    -2.7226     6.2885 H       
  54 H54           -6.6576    -4.6950     5.1784 H       
  55 H55           -5.0613    -5.6188     5.1732 H       
@<TRIPOS>BOND
   1    1    2 1
   2    1   22 1
   3    1   33 1
   4    1   34 1
   5    2    3 1
   6    2   19 1
   7    2   35 1
   8    3    4 1
   9    3   36 1
  10    3   37 1
  11    4    5 1
  12    4    8 1
  13    4   38 1
  14    5    6 am
  15    5   13 2
  16    6    7 1
  17    6   39 1
  18    7   14 1
  19    7   17 2
  20    8    9 1
  21    8   12 1
  22    9   10 2
  23   10   11 ar
  24   10   23 ar
  25   11   12 2
  26   11   26 ar
  27   12   40 1
  28   14   15 1
  29   15   16 2
  30   15   18 1
  31   16   17 1
  32   16   41 1
  33   19   20 1
  34   19   42 1
  35   19   43 1
  36   20   21 1
  37   20   44 1
  38   20   45 1
  39   21   22 1
  40   22   46 1
  41   22   47 1
  42   23   24 ar
  43   23   48 1
  44   24   25 ar
  45   24   49 1
  46   25   26 ar
  47   25   50 1
  48   26   27 1
  49   27   28 1
  50   27   29 2
  51   27   30 2
  52   28   31 1
  53   28   32 1
  54   28   51 1
  55   31   32 1
  56   31   52 1
  57   31   53 1
  58   32   54 1
  59   32   55 1

#	End of record

