#	Name: ASD03570005
#	Creating user name:	WinNT
#	Creation time:	15. 06. 2019 20:43

#	Modifying user name:	WinNT
#	Modification time:	15. 06. 2019 20:43

#	Program:	/corina/corina34_cracker 3.40 0067  02.08.2006

@<TRIPOS>MOLECULE
ASD03570005
  34   35    0    0    0
SMALL
NO_CHARGES


@<TRIPOS>ATOM
   1 C1             0.2261     1.4165    -0.4415 C.ar    
   2 C2             0.1969     0.0285    -0.3850 C.ar    
   3 C3             1.3603    -0.6925    -0.2374 C.ar    
   4 C4             2.5798    -0.0273    -0.1439 C.ar    
   5 C5             2.6069     1.3799    -0.2019 C.ar    
   6 C6             1.4088     2.0909    -0.3521 C.ar    
   7 N7             3.8770    -0.4577     0.0042 N.pl3   
   8 C8             4.7101     0.6442     0.0398 C.2     
   9 C9             3.9617     1.7724    -0.0836 C.2     
  10 C10            4.4813     3.1870    -0.0932 C.3     
  11 C11            4.5730     3.7064     1.3430 C.3     
  12 C12            1.4266     3.5964    -0.4152 C.3     
  13 C13           -1.1214    -0.6947    -0.4859 C.3     
  14 C14            5.0926     5.1209     1.3334 C.2     
  15 O15            5.3620     5.6585     0.2854 O.2     
  16 O16            5.2562     5.7837     2.4891 O.3     
  17 C17            6.1710     0.6030     0.1879 C.2     
  18 O18            6.8094     1.6375     0.2074 O.2     
  19 O19            6.8040    -0.5821     0.3021 O.3     
  20 H20           -0.6955     1.9665    -0.5618 H       
  21 H21            1.3271    -1.7711    -0.1938 H       
  22 H22            4.1607    -1.3828     0.0724 H       
  23 H23            5.4704     3.2076    -0.5508 H       
  24 H24            3.8028     3.8194    -0.6657 H       
  25 H25            3.5839     3.6857     1.8007 H       
  26 H26            5.2515     3.0740     1.9155 H       
  27 H27            1.6351     3.9148    -1.4366 H       
  28 H28            0.4566     3.9846    -0.1045 H       
  29 H29            2.2009     3.9789     0.2498 H       
  30 H30           -1.3370    -0.9128    -1.5318 H       
  31 H31           -1.0682    -1.6271     0.0762 H       
  32 H32           -1.9123    -0.0673    -0.0750 H       
  33 H33            5.5921     6.6887     2.4325 H       
  34 H34            7.7660    -0.5586     0.3974 H       
@<TRIPOS>BOND
   1    1    2 ar
   2    1    6 ar
   3    1   20 1
   4    2    3 ar
   5    2   13 1
   6    3    4 ar
   7    3   21 1
   8    4    5 ar
   9    4    7 1
  10    5    6 ar
  11    5    9 1
  12    6   12 1
  13    7    8 1
  14    7   22 1
  15    8    9 2
  16    8   17 1
  17    9   10 1
  18   10   11 1
  19   10   23 1
  20   10   24 1
  21   11   14 1
  22   11   25 1
  23   11   26 1
  24   12   27 1
  25   12   28 1
  26   12   29 1
  27   13   30 1
  28   13   31 1
  29   13   32 1
  30   14   15 2
  31   14   16 1
  32   16   33 1
  33   17   18 2
  34   17   19 1
  35   19   34 1

#	End of record

