#	Name: ASD03092150
#	Creating user name:	WinNT
#	Creation time:	15. 06. 2019 20:32

#	Modifying user name:	WinNT
#	Modification time:	15. 06. 2019 20:32

#	Program:	/corina/corina34_cracker 3.40 0067  02.08.2006

@<TRIPOS>MOLECULE
ASD03092150
  54   56    0    0    0
SMALL
NO_CHARGES


@<TRIPOS>ATOM
   1 N1            -0.0320     1.2371    -0.2423 N.pl3   
   2 C2            -0.0951    -0.1011     0.0107 C.2     
   3 C3            -1.4062    -0.4149     0.2293 C.2     
   4 C4            -2.1546     0.7625     0.1055 C.2     
   5 N5            -1.3336     1.7494    -0.1704 N.2     
   6 N6            -3.5424     0.8699     0.2564 N.pl3   
   7 C7            -4.1542     2.1269     0.2221 C.ar    
   8 C8            -5.4824     2.2436    -0.1664 C.ar    
   9 C9            -6.0846     3.4863    -0.1995 C.ar    
  10 C10           -5.3650     4.6151     0.1539 C.ar    
  11 C11           -3.4359     3.2602     0.5822 C.ar    
  12 C12            1.0472    -1.0408     0.0425 C.ar    
  13 C13            1.1822     2.0041    -0.5315 C.3     
  14 C14            2.2288    -0.7604    -0.6562 C.ar    
  15 C15            3.2708    -1.6602    -0.6017 C.ar    
  16 N16            3.1695    -2.7763     0.0961 N.ar    
  17 C17            2.0722    -3.0832     0.7721 C.ar    
  18 C18            0.9783    -2.2282     0.7746 C.ar    
  19 C19           -4.0403     4.5012     0.5417 C.ar    
  20 C20            1.2821     2.2518    -2.0381 C.3     
  21 N21            2.0174    -4.2720     1.4913 N.pl3   
  22 C22            0.8079    -4.6192     2.2415 C.3     
  23 C23            1.0089    -5.9667     2.9377 C.3     
  24 O24            1.1293     3.2564     0.1546 O.3     
  25 F25           -5.9557     5.8296     0.1199 F       
  26 C26            4.5452    -1.3661    -1.3503 C.3     
  27 C27            2.6100     2.9429    -2.3543 C.3     
  28 C28           -7.5258     3.6136    -0.6210 C.3     
  29 F29           -8.0356     2.3474    -0.9278 F       
  30 F30           -8.2691     4.1752     0.4227 F       
  31 F31           -7.6108     4.4364    -1.7493 F       
  32 H32           -1.7963    -1.3960     0.4567 H       
  33 H33           -4.0795     0.0725     0.3846 H       
  34 H34           -6.0439     1.3634    -0.4428 H       
  35 H35           -2.4043     3.1713     0.8893 H       
  36 H36            2.0547     1.4430    -0.1969 H       
  37 H37            2.3215     0.1495    -1.2305 H       
  38 H38            0.0853    -2.4814     1.3267 H       
  39 H39           -3.4808     5.3831     0.8165 H       
  40 H40            1.2330     1.2999    -2.5668 H       
  41 H41            0.4564     2.8877    -2.3573 H       
  42 H42            2.7800    -4.8714     1.4962 H       
  43 H43            0.6104    -3.8503     2.9884 H       
  44 H44           -0.0376    -4.6864     1.5569 H       
  45 H45            0.1090    -6.2251     3.4959 H       
  46 H46            1.2064    -6.7357     2.1908 H       
  47 H47            1.8544    -5.8995     3.6223 H       
  48 H48            0.3762     3.8097    -0.0942 H       
  49 H49            5.2264    -0.8121    -0.7045 H       
  50 H50            5.0130    -2.3028    -1.6534 H       
  51 H51            4.3180    -0.7707    -2.2346 H       
  52 H52            2.6591     3.8948    -1.8255 H       
  53 H53            3.4357     2.3070    -2.0350 H       
  54 H54            2.6812     3.1194    -3.4275 H       
@<TRIPOS>BOND
   1    1    2 1
   2    1   13 1
   3    1    5 1
   4    2    3 2
   5    2   12 1
   6    3    4 1
   7    3   32 1
   8    4    5 2
   9    4    6 1
  10    6    7 1
  11    6   33 1
  12    7    8 ar
  13    7   11 ar
  14    8    9 ar
  15    8   34 1
  16    9   10 ar
  17    9   28 1
  18   10   19 ar
  19   10   25 1
  20   11   19 ar
  21   11   35 1
  22   12   14 ar
  23   12   18 ar
  24   13   20 1
  25   13   24 1
  26   13   36 1
  27   14   15 ar
  28   14   37 1
  29   15   16 ar
  30   15   26 1
  31   16   17 ar
  32   17   18 ar
  33   17   21 1
  34   18   38 1
  35   19   39 1
  36   20   27 1
  37   20   40 1
  38   20   41 1
  39   21   22 1
  40   21   42 1
  41   22   23 1
  42   22   43 1
  43   22   44 1
  44   23   45 1
  45   23   46 1
  46   23   47 1
  47   24   48 1
  48   26   49 1
  49   26   50 1
  50   26   51 1
  51   27   52 1
  52   27   53 1
  53   27   54 1
  54   28   29 1
  55   28   30 1
  56   28   31 1

#	End of record

