#	Name: ASD02198696
#	Creating user name:	WinNT
#	Creation time:	15. 06. 2019 20:20

#	Modifying user name:	WinNT
#	Modification time:	15. 06. 2019 20:20

#	Program:	/corina/corina34_cracker 3.40 0067  02.08.2006

@<TRIPOS>MOLECULE
ASD02198696
  52   56    0    0    0
SMALL
NO_CHARGES


@<TRIPOS>ATOM
   1 C1            -0.0433     1.5018    -0.1150 C.2     
   2 C2            -0.0731     0.1620     0.0975 C.2     
   3 N3             1.0712    -0.5396     0.2603 N.pl3   
   4 N4             2.2357    -0.0048     0.2267 N.2     
   5 C5             2.4072     1.2848     0.0281 C.2     
   6 C6             1.2216     2.1358    -0.1604 C.2     
   7 C7             0.9798    -1.9180     0.4766 C.ar    
   8 C8             1.5817    -2.4891     1.5977 C.ar    
   9 C9             1.4906    -3.8533     1.8109 C.ar    
  10 C10            0.7977    -4.6527     0.9050 C.ar    
  11 C11            0.1975    -4.0776    -0.2142 C.ar    
  12 C12            0.2844    -2.7172    -0.4222 C.ar    
  13 C13            3.7642     1.8671    -0.0040 C.2     
  14 N14            4.3065     2.6070    -1.0171 N.pl3   
  15 N15            5.6081     2.9588    -0.6387 N.2     
  16 C16            5.8515     2.4596     0.5469 C.2     
  17 C17            4.7194     1.7719     0.9841 C.2     
  18 C18            3.6739     2.9515    -2.2183 C.ar    
  19 C19            3.8080     4.2347    -2.7322 C.ar    
  20 C20            3.1833     4.5712    -3.9171 C.ar    
  21 C21            2.4246     3.6321    -4.5914 C.ar    
  22 C22            2.2892     2.3535    -4.0823 C.ar    
  23 C23            2.9160     2.0091    -2.9008 C.ar    
  24 O24            1.3245     3.3389    -0.3487 O.2     
  25 C25            0.6986    -6.1165     1.1309 C.2     
  26 C26            0.0594    -7.0151     0.3271 C.2     
  27 C27            1.2526    -6.8315     2.2107 C.2     
  28 N28            0.9524    -8.0941     2.0582 N.2     
  29 N29            0.2039    -8.2348     0.8834 N.pl3   
  30 C30           -0.3309    -9.4905     0.3510 C.3     
  31 F31           -0.6043   -10.3661     1.4073 F       
  32 F32           -1.5093    -9.2323    -0.3575 F       
  33 O33            2.2576    -1.7065     2.4797 O.3     
  34 C34            2.8490    -2.3589     3.6051 C.3     
  35 H35           -0.9546     2.0654    -0.2495 H       
  36 H36           -1.0229    -0.3504     0.1374 H       
  37 H37            1.9563    -4.2974     2.6781 H       
  38 H38           -0.3398    -4.6975    -0.9166 H       
  39 H39           -0.1815    -2.2736    -1.2896 H       
  40 H40            6.7746     2.5663     1.0972 H       
  41 H41            4.6132     1.2527     1.9252 H       
  42 H42            4.3998     4.9687    -2.2056 H       
  43 H43            3.2872     5.5689    -4.3173 H       
  44 H44            1.9366     3.8978    -5.5175 H       
  45 H45            1.6960     1.6223    -4.6113 H       
  46 H46            2.8101     1.0103    -2.5039 H       
  47 H47           -0.4673    -6.7900    -0.5885 H       
  48 H48            1.8257    -6.4097     3.0231 H       
  49 H49            0.4023    -9.9437    -0.3162 H       
  50 H50            2.0720    -2.8534     4.1881 H       
  51 H51            3.5698    -3.0994     3.2585 H       
  52 H52            3.3562    -1.6216     4.2274 H       
@<TRIPOS>BOND
   1    1    2 2
   2    1    6 1
   3    1   35 1
   4    2    3 1
   5    2   36 1
   6    3    4 1
   7    3    7 1
   8    4    5 2
   9    5    6 1
  10    5   13 1
  11    6   24 2
  12    7    8 ar
  13    7   12 ar
  14    8    9 ar
  15    8   33 1
  16    9   10 ar
  17    9   37 1
  18   10   11 ar
  19   10   25 1
  20   11   12 ar
  21   11   38 1
  22   12   39 1
  23   13   14 1
  24   13   17 2
  25   14   15 1
  26   14   18 1
  27   15   16 2
  28   16   17 1
  29   16   40 1
  30   17   41 1
  31   18   19 ar
  32   18   23 ar
  33   19   20 ar
  34   19   42 1
  35   20   21 ar
  36   20   43 1
  37   21   22 ar
  38   21   44 1
  39   22   23 ar
  40   22   45 1
  41   23   46 1
  42   25   27 1
  43   25   26 2
  44   26   29 1
  45   26   47 1
  46   27   28 2
  47   27   48 1
  48   28   29 1
  49   29   30 1
  50   30   31 1
  51   30   32 1
  52   30   49 1
  53   33   34 1
  54   34   50 1
  55   34   51 1
  56   34   52 1

#	End of record

