#	Name: ASD03731276
#	Creating user name:	WinNT
#	Creation time:	15. 06. 2019 20:45

#	Modifying user name:	WinNT
#	Modification time:	15. 06. 2019 20:45

#	Program:	/corina/corina34_cracker 3.40 0067  02.08.2006

@<TRIPOS>MOLECULE
ASD03731276
  57   62    0    0    0
SMALL
NO_CHARGES


@<TRIPOS>ATOM
   1 N1            -0.0162     1.3436     0.0094 N.am    
   2 C2            -0.1436     0.0021     0.0364 C.2     
   3 O3             0.8428    -0.7040    -0.0461 O.2     
   4 N4            -1.3643    -0.5567     0.1550 N.am    
   5 C5            -1.5027    -2.0148     0.1844 C.3     
   6 C6            -2.9809    -2.3841     0.3244 C.3     
   7 O7             1.4411    -7.7584     2.1282 O.3     
   8 C8             1.7337    -9.1489     2.3605 C.3     
   9 O9             0.5421    -9.6480     2.9960 O.3     
  10 C10           -0.4716    -8.8477     2.5524 C.ar    
  11 C11            0.0818    -7.6855     2.0198 C.ar    
  12 C12           -1.8441    -9.0201     2.5591 C.ar    
  13 C13           -2.6807    -8.0377     2.0380 C.ar    
  14 C14           -2.1166    -6.8775     1.5163 C.ar    
  15 C15           -0.7482    -6.7053     1.5025 C.ar    
  16 O16           -4.0404    -8.0163     1.9329 O.3     
  17 C17           -3.2608    -6.0102     1.0639 C.3     
  18 C18           -4.4802    -6.6592     1.7327 C.3     
  19 N19           -3.1193    -3.8422     0.3538 N.am    
  20 C20           -3.0886    -4.5784     1.4825 C.2     
  21 C21           -3.3945    -5.9746    -0.4296 C.ar    
  22 C22           -3.5749    -6.9429    -1.3920 C.ar    
  23 C23           -3.6647    -6.5860    -2.7257 C.ar    
  24 C24           -3.5721    -5.2550    -3.0898 C.ar    
  25 C25           -3.3904    -4.2816    -2.1297 C.ar    
  26 C26           -3.2993    -4.6315    -0.7847 C.ar    
  27 O27           -2.9495    -4.1653     2.6144 O.2     
  28 C28            1.2564     1.9257     0.0080 C.ar    
  29 C29            1.4784     3.1109    -0.6807 C.ar    
  30 C30            2.7365     3.6832    -0.6802 C.ar    
  31 C31            3.7740     3.0755     0.0057 C.ar    
  32 C32            3.5549     1.8957     0.6919 C.ar    
  33 C33            2.2981     1.3223     0.7000 C.ar    
  34 C34            0.3492     3.7720    -1.4283 C.3     
  35 Cl35           3.0158     5.1648    -1.5407 Cl      
  36 H36           -0.8066     1.9054    -0.0131 H       
  37 H37           -2.1512     0.0066     0.2209 H       
  38 H38           -1.1091    -2.4359    -0.7408 H       
  39 H39           -0.9463    -2.4156     1.0316 H       
  40 H40           -3.3745    -1.9630     1.2495 H       
  41 H41           -3.5373    -1.9833    -0.5228 H       
  42 H42            1.9099    -9.6659     1.4172 H       
  43 H43            2.5934    -9.2540     3.0223 H       
  44 H44           -2.2693    -9.9231     2.9716 H       
  45 H45           -0.3230    -5.8034     1.0875 H       
  46 H46           -5.3469    -6.6265     1.0724 H       
  47 H47           -4.7002    -6.1788     2.6861 H       
  48 H48           -3.6468    -7.9816    -1.1054 H       
  49 H49           -3.8071    -7.3451    -3.4806 H       
  50 H50           -3.6420    -4.9765    -4.1309 H       
  51 H51           -3.3184    -3.2443    -2.4218 H       
  52 H52            4.7565     3.5239     0.0044 H       
  53 H53            4.3664     1.4239     1.2262 H       
  54 H54            2.1270     0.4029     1.2401 H       
  55 H55           -0.1674     4.4667    -0.7660 H       
  56 H56            0.7492     4.3154    -2.2844 H       
  57 H57           -0.3510     3.0120    -1.7751 H       
@<TRIPOS>BOND
   1    1    2 am
   2    1   28 1
   3    1   36 1
   4    2    3 2
   5    2    4 am
   6    4    5 1
   7    4   37 1
   8    5    6 1
   9    5   38 1
  10    5   39 1
  11    6   19 1
  12    6   40 1
  13    6   41 1
  14    7    8 1
  15    7   11 1
  16    8    9 1
  17    8   42 1
  18    8   43 1
  19    9   10 1
  20   10   11 ar
  21   10   12 ar
  22   11   15 ar
  23   12   13 ar
  24   12   44 1
  25   13   14 ar
  26   13   16 1
  27   14   15 ar
  28   14   17 1
  29   15   45 1
  30   16   18 1
  31   17   18 1
  32   17   20 1
  33   17   21 1
  34   18   46 1
  35   18   47 1
  36   19   20 am
  37   19   26 1
  38   20   27 2
  39   21   22 ar
  40   21   26 ar
  41   22   23 ar
  42   22   48 1
  43   23   24 ar
  44   23   49 1
  45   24   25 ar
  46   24   50 1
  47   25   26 ar
  48   25   51 1
  49   28   29 ar
  50   28   33 ar
  51   29   30 ar
  52   29   34 1
  53   30   31 ar
  54   30   35 1
  55   31   32 ar
  56   31   52 1
  57   32   33 ar
  58   32   53 1
  59   33   54 1
  60   34   55 1
  61   34   56 1
  62   34   57 1

#	End of record

