#	Name: ASD01915408
#	Creating user name:	WinNT
#	Creation time:	15. 06. 2019 20:05

#	Modifying user name:	WinNT
#	Modification time:	15. 06. 2019 20:05

#	Program:	/corina/corina34_cracker 3.40 0067  02.08.2006

@<TRIPOS>MOLECULE
ASD01915408
  46   49    0    0    0
SMALL
NO_CHARGES


@<TRIPOS>ATOM
   1 O1            -1.0418     1.8604     0.0420 O.2     
   2 C2            -0.0144     1.2115     0.0087 C.2     
   3 N3             1.1778     1.8387    -0.0309 N.am    
   4 C4            -0.0725    -0.2652     0.0178 C.2     
   5 C5             1.2505     3.3026    -0.1331 C.3     
   6 C6             2.4296     1.0720     0.0336 C.3     
   7 C7             3.3074     1.4599    -1.1605 C.3     
   8 C8             3.5002     2.9780    -1.1750 C.3     
   9 C9             2.1391     3.6700    -1.3257 C.3     
  10 C10            4.6486     0.7836    -1.0394 C.2     
  11 O11            5.1855    -0.0781    -1.9206 O.3     
  12 N12            5.5006     0.9328    -0.0640 N.2     
  13 N13            6.5392     0.2063    -0.2851 N.2     
  14 C14            6.3856    -0.4341    -1.4204 C.2     
  15 C15            7.3493    -1.3707    -2.0361 C.ar    
  16 C16            8.5615    -1.6461    -1.4013 C.ar    
  17 C17            9.4570    -2.5206    -1.9800 C.ar    
  18 C18            9.1551    -3.1258    -3.1898 C.ar    
  19 C19            7.9529    -2.8559    -3.8243 C.ar    
  20 C20            7.0478    -1.9874    -3.2515 C.ar    
  21 C21           -0.4374    -1.0042    -1.2101 C.2     
  22 C22           -0.8606    -2.2575    -1.1216 C.2     
  23 C23           -0.9748    -2.9290     0.2206 C.3     
  24 C24            0.2113    -0.9477     1.1412 C.2     
  25 C25            0.1464    -2.4524     1.1427 C.3     
  26 F26           -2.2118    -2.6142     0.7932 F       
  27 F27           10.0361    -3.9815    -3.7527 F       
  28 H28            0.2502     3.7085    -0.2840 H       
  29 H29            1.6791     3.7120     0.7817 H       
  30 H30            2.9523     1.3032     0.9617 H       
  31 H31            2.2074     0.0057    -0.0073 H       
  32 H32            2.8232     1.1458    -2.0852 H       
  33 H33            3.9619     3.2944    -0.2397 H       
  34 H34            4.1447     3.2542    -2.0095 H       
  35 H35            1.6617     3.3370    -2.2472 H       
  36 H36            2.2819     4.7501    -1.3592 H       
  37 H37            8.7979    -1.1747    -0.4587 H       
  38 H38           10.3954    -2.7341    -1.4899 H       
  39 H39            7.7225    -3.3302    -4.7669 H       
  40 H40            6.1112    -1.7778    -3.7467 H       
  41 H41           -0.3597    -0.5249    -2.1748 H       
  42 H42           -1.1252    -2.7994    -2.0175 H       
  43 H43           -0.9002    -4.0088     0.0921 H       
  44 H44            0.4819    -0.4174     2.0423 H       
  45 H45           -0.0368    -2.8059     2.1574 H       
  46 H46            1.0940    -2.8560     0.7859 H       
@<TRIPOS>BOND
   1    1    2 2
   2    2    3 am
   3    2    4 1
   4    3    5 1
   5    3    6 1
   6    4   21 1
   7    4   24 2
   8    5    9 1
   9    5   28 1
  10    5   29 1
  11    6    7 1
  12    6   30 1
  13    6   31 1
  14    7    8 1
  15    7   10 1
  16    7   32 1
  17    8    9 1
  18    8   33 1
  19    8   34 1
  20    9   35 1
  21    9   36 1
  22   10   11 1
  23   10   12 2
  24   11   14 1
  25   12   13 1
  26   13   14 2
  27   14   15 1
  28   15   16 ar
  29   15   20 ar
  30   16   17 ar
  31   16   37 1
  32   17   18 ar
  33   17   38 1
  34   18   19 ar
  35   18   27 1
  36   19   20 ar
  37   19   39 1
  38   20   40 1
  39   21   22 2
  40   21   41 1
  41   22   23 1
  42   22   42 1
  43   23   26 1
  44   23   25 1
  45   23   43 1
  46   24   25 1
  47   24   44 1
  48   25   45 1
  49   25   46 1

#	End of record

