#	Name: ASD01000058
#	Creating user name:	WinNT
#	Creation time:	15. 06. 2019 18:54

#	Modifying user name:	WinNT
#	Modification time:	15. 06. 2019 18:54

#	Program:	/corina/corina34_cracker 3.40 0067  02.08.2006

@<TRIPOS>MOLECULE
ASD01000058
  52   54    0    0    0
SMALL
NO_CHARGES


@<TRIPOS>ATOM
   1 C1             2.8705     1.4532    -0.0692 C.ar    
   2 C2             2.7010     0.0916    -0.2364 C.ar    
   3 C3             1.7156    -0.5740     0.4686 C.ar    
   4 C4             0.9001     0.1220     1.3411 C.ar    
   5 C5             1.0702     1.4835     1.5090 C.ar    
   6 C6             2.0546     2.1494     0.8030 C.ar    
   7 C7             1.5302    -2.0583     0.2856 C.3     
   8 C8             1.0787    -2.6723     1.5857 C.ar    
   9 C9             1.7936    -2.4383     2.7455 C.ar    
  10 C10            1.3795    -3.0015     3.9381 C.ar    
  11 C11            0.2503    -3.7983     3.9709 C.ar    
  12 C12           -0.4650    -4.0315     2.8113 C.ar    
  13 C13           -0.0534    -3.4647     1.6195 C.ar    
  14 S14            0.2776    -2.3582    -0.9918 S.3     
  15 C15           -1.1598    -1.4376    -0.3780 C.3     
  16 C16           -2.3538    -1.6797    -1.3036 C.3     
  17 N17           -2.0224    -1.2228    -2.6598 N.3     
  18 C18            2.8567    -2.6890    -0.1428 C.3     
  19 C19            2.6876    -4.1817    -0.2630 C.2     
  20 C20            2.8749    -5.0584     0.9476 C.3     
  21 C21            2.3686    -4.7191    -1.4339 C.2     
  22 C22            2.1765    -6.1729    -1.5463 C.2     
  23 C23            1.9731    -6.9006    -0.4551 C.2     
  24 C24            1.9051    -6.2379     0.8943 C.3     
  25 C25           -3.5480    -0.9149    -0.7936 C.2     
  26 O26           -3.8491     0.1412    -1.2974 O.2     
  27 O27           -4.2771    -1.4070     0.2203 O.3     
  28 H28            3.6433     1.9724    -0.6166 H       
  29 H29            3.3381    -0.4522    -0.9181 H       
  30 H30            0.1298    -0.3978     1.8914 H       
  31 H31            0.4326     2.0275     2.1902 H       
  32 H32            2.1878     3.2130     0.9344 H       
  33 H33            2.6758    -1.8158     2.7198 H       
  34 H34            1.9384    -2.8193     4.8441 H       
  35 H35           -0.0728    -4.2389     4.9025 H       
  36 H36           -1.3470    -4.6543     2.8369 H       
  37 H37           -0.6123    -3.6469     0.7135 H       
  38 H38           -1.4057    -1.7767     0.6284 H       
  39 H39           -0.9271    -0.3730    -0.3560 H       
  40 H40           -2.5865    -2.7444    -1.3256 H       
  41 H41           -1.8027    -0.2380    -2.6660 H       
  42 H42           -1.2655    -1.7646    -3.0491 H       
  43 H43            3.1596    -2.2790    -1.1063 H       
  44 H44            3.6211    -2.4688     0.6023 H       
  45 H45            3.8985    -5.4324     0.9685 H       
  46 H46            2.6861    -4.4754     1.8491 H       
  47 H47            2.2500    -4.0894    -2.3033 H       
  48 H48            2.2005    -6.6479    -2.5160 H       
  49 H49            1.8514    -7.9706    -0.5367 H       
  50 H50            2.1763    -6.9589     1.6654 H       
  51 H51            0.8896    -5.8844     1.0729 H       
  52 H52           -5.0337    -0.8807     0.5129 H       
@<TRIPOS>BOND
   1    1    2 ar
   2    1    6 ar
   3    1   28 1
   4    2    3 ar
   5    2   29 1
   6    3    4 ar
   7    3    7 1
   8    4    5 ar
   9    4   30 1
  10    5    6 ar
  11    5   31 1
  12    6   32 1
  13    7    8 1
  14    7   14 1
  15    7   18 1
  16    8    9 ar
  17    8   13 ar
  18    9   10 ar
  19    9   33 1
  20   10   11 ar
  21   10   34 1
  22   11   12 ar
  23   11   35 1
  24   12   13 ar
  25   12   36 1
  26   13   37 1
  27   14   15 1
  28   15   16 1
  29   15   38 1
  30   15   39 1
  31   16   25 1
  32   16   17 1
  33   16   40 1
  34   17   41 1
  35   17   42 1
  36   18   19 1
  37   18   43 1
  38   18   44 1
  39   19   20 1
  40   19   21 2
  41   20   24 1
  42   20   45 1
  43   20   46 1
  44   21   22 1
  45   21   47 1
  46   22   23 2
  47   22   48 1
  48   23   24 1
  49   23   49 1
  50   24   50 1
  51   24   51 1
  52   25   26 2
  53   25   27 1
  54   27   52 1

#	End of record

