#	Name: ASD03330874
#	Creating user name:	WinNT
#	Creation time:	15. 06. 2019 20:38

#	Modifying user name:	WinNT
#	Modification time:	15. 06. 2019 20:38

#	Program:	/corina/corina34_cracker 3.40 0067  02.08.2006

@<TRIPOS>MOLECULE
ASD03330874
  60   62    0    0    0
SMALL
NO_CHARGES


@<TRIPOS>ATOM
   1 C1            -0.4434     1.0713    -0.0679 C.2     
   2 C2            -0.5619    -0.4087     0.1899 C.3     
   3 N3             0.7482     1.7209    -0.2093 N.pl3   
   4 N4             0.7395    -1.0294    -0.1169 N.3     
   5 C5             1.8388    -0.3147     0.5467 C.3     
   6 C6             2.0487     1.0512    -0.1196 C.3     
   7 C7             0.4739     3.0326    -0.4331 C.2     
   8 N8            -0.8306     3.1935    -0.4278 N.2     
   9 C9            -1.4237     1.9975    -0.2090 C.2     
  10 C10           -2.8740     1.7467    -0.1352 C.2     
  11 O11           -3.2868     0.6212     0.0695 O.2     
  12 N12           -3.7428     2.7646    -0.2946 N.am    
  13 C13            0.7423    -2.4529     0.2458 C.3     
  14 C14           -5.8936     3.7824     0.1823 C.2     
  15 C15           -5.1846     2.5153    -0.2213 C.3     
  16 C16           -5.6937     2.0598    -1.5903 C.3     
  17 C17           -5.3083     3.0958    -2.6482 C.3     
  18 O18           -5.4055     4.8608    -0.0817 O.2     
  19 N19           -7.0701     3.7172     0.8365 N.am    
  20 C20           -7.7038     4.9431     1.3281 C.3     
  21 C21           -5.0654     0.7107    -1.9451 C.3     
  22 C22           -7.2165     1.9176    -1.5467 C.3     
  23 C23            1.4752     4.1004    -0.6460 C.ar    
  24 C24            1.3666     5.3106     0.0415 C.ar    
  25 C25            2.3052     6.3033    -0.1624 C.ar    
  26 C26            3.3499     6.1000    -1.0454 C.ar    
  27 C27            3.4623     4.9026    -1.7299 C.ar    
  28 C28            2.5355     3.9004    -1.5306 C.ar    
  29 C29            4.6037     4.6905    -2.6909 C.3     
  30 Cl30           0.0549     5.5675     1.1493 Cl      
  31 F31            5.4080     5.8348    -2.7194 F       
  32 F32            5.3666     3.5944    -2.2741 F       
  33 F33            4.0959     4.4454    -3.9712 F       
  34 H34           -0.8151    -0.5814     1.2359 H       
  35 H35           -1.3335    -0.8339    -0.4519 H       
  36 H36            1.5941    -0.1706     1.5990 H       
  37 H37            2.7536    -0.9016     0.4657 H       
  38 H38            2.4611     0.9134    -1.1191 H       
  39 H39            2.7313     1.6525     0.4809 H       
  40 H40           -3.4136     3.6623    -0.4579 H       
  41 H41           -0.0339    -2.9725    -0.3160 H       
  42 H42            1.7141    -2.8863     0.0089 H       
  43 H43            0.5489    -2.5562     1.3135 H       
  44 H44           -5.3818     1.7378     0.5168 H       
  45 H45           -4.2235     3.1971    -2.6793 H       
  46 H46           -5.6710     2.7714    -3.6235 H       
  47 H47           -5.7559     4.0570    -2.3955 H       
  48 H48           -7.4972     2.8585     0.9820 H       
  49 H49           -7.0372     5.4389     2.0338 H       
  50 H50           -7.9056     5.6093     0.4893 H       
  51 H51           -8.6402     4.6932     1.8270 H       
  52 H52           -5.3400    -0.0274    -1.1914 H       
  53 H53           -5.4281     0.3862    -2.9204 H       
  54 H54           -3.9806     0.8120    -1.9761 H       
  55 H55           -7.6689     2.8984    -1.4000 H       
  56 H56           -7.5687     1.4919    -2.4863 H       
  57 H57           -7.4966     1.2613    -0.7228 H       
  58 H58            2.2229     7.2402     0.3685 H       
  59 H59            4.0811     6.8793    -1.2017 H       
  60 H60            2.6278     2.9647    -2.0619 H       
@<TRIPOS>BOND
   1    1    2 1
   2    1    3 1
   3    1    9 2
   4    2    4 1
   5    2   34 1
   6    2   35 1
   7    3    6 1
   8    3    7 1
   9    4    5 1
  10    4   13 1
  11    5    6 1
  12    5   36 1
  13    5   37 1
  14    6   38 1
  15    6   39 1
  16    7    8 2
  17    7   23 1
  18    8    9 1
  19    9   10 1
  20   10   11 2
  21   10   12 am
  22   12   15 1
  23   12   40 1
  24   13   41 1
  25   13   42 1
  26   13   43 1
  27   14   18 2
  28   14   19 am
  29   14   15 1
  30   15   16 1
  31   15   44 1
  32   16   17 1
  33   16   21 1
  34   16   22 1
  35   17   45 1
  36   17   46 1
  37   17   47 1
  38   19   20 1
  39   19   48 1
  40   20   49 1
  41   20   50 1
  42   20   51 1
  43   21   52 1
  44   21   53 1
  45   21   54 1
  46   22   55 1
  47   22   56 1
  48   22   57 1
  49   23   24 ar
  50   23   28 ar
  51   24   25 ar
  52   24   30 1
  53   25   26 ar
  54   25   58 1
  55   26   27 ar
  56   26   59 1
  57   27   28 ar
  58   27   29 1
  59   28   60 1
  60   29   31 1
  61   29   32 1
  62   29   33 1

#	End of record

