#	Name: ASD01230420
#	Creating user name:	WinNT
#	Creation time:	15. 06. 2019 19:14

#	Modifying user name:	WinNT
#	Modification time:	15. 06. 2019 19:14

#	Program:	/corina/corina34_cracker 3.40 0067  02.08.2006

@<TRIPOS>MOLECULE
ASD01230420
  43   45    0    0    0
SMALL
NO_CHARGES


@<TRIPOS>ATOM
   1 C1             0.2079     1.1133    -0.3954 C.ar    
   2 C2             0.0341    -0.1991    -0.8579 C.ar    
   3 C3             1.0809    -0.8156    -1.5427 C.ar    
   4 C4             2.2529    -0.1008    -1.7371 C.ar    
   5 C5             2.3503     1.1888    -1.2523 C.ar    
   6 N6             1.3464     1.7527    -0.6067 N.ar    
   7 N7            -0.8236     1.7476     0.2836 N.pl3   
   8 C8             3.4112    -0.7260    -2.4711 C.3     
   9 C9            -1.2406    -0.9191    -0.6224 C.ar    
  10 C10           -1.7919    -0.9632     0.6574 C.ar    
  11 C11           -2.9777    -1.6332     0.8731 C.ar    
  12 C12           -3.6227    -2.2635    -0.1827 C.ar    
  13 C13           -3.0759    -2.2217    -1.4584 C.ar    
  14 C14           -1.8933    -1.5485    -1.6815 C.ar    
  15 O15           -4.7909    -2.9229     0.0329 O.3     
  16 C16           -4.7302    -4.2462     0.3354 C.ar    
  17 C17           -3.5000    -4.8606     0.5230 C.ar    
  18 C18           -3.4410    -6.2057     0.8308 C.ar    
  19 C19           -4.6064    -6.9403     0.9517 C.ar    
  20 C20           -5.8332    -6.3307     0.7653 C.ar    
  21 C21           -5.8980    -4.9842     0.4629 C.ar    
  22 C22           -2.1055    -6.8735     1.0346 C.3     
  23 C23           -1.7085    -6.7802     2.5093 C.3     
  24 F24           -2.1946    -8.2184     0.6599 F       
  25 F25           -1.1397    -6.2338     0.2503 F       
  26 H26            0.9812    -1.8255    -1.9123 H       
  27 H27            3.2635     1.7452    -1.4036 H       
  28 H28           -1.6613     1.2830     0.4367 H       
  29 H29           -0.7067     2.6554     0.6048 H       
  30 H30            3.3224    -0.5152    -3.5368 H       
  31 H31            4.3463    -0.3108    -2.0952 H       
  32 H32            3.4026    -1.8043    -2.3121 H       
  33 H33           -1.2905    -0.4734     1.4791 H       
  34 H34           -3.4051    -1.6680     1.8643 H       
  35 H35           -3.5795    -2.7135    -2.2775 H       
  36 H36           -1.4710    -1.5122    -2.6749 H       
  37 H37           -2.5895    -4.2874     0.4280 H       
  38 H38           -4.5581    -7.9922     1.1918 H       
  39 H39           -6.7418    -6.9067     0.8603 H       
  40 H40           -6.8568    -4.5075     0.3218 H       
  41 H41           -2.4610    -7.2786     3.1204 H       
  42 H42           -0.7425    -7.2633     2.6567 H       
  43 H43           -1.6390    -5.7324     2.8013 H       
@<TRIPOS>BOND
   1    1    2 ar
   2    1    6 ar
   3    1    7 1
   4    2    3 ar
   5    2    9 1
   6    3    4 ar
   7    3   26 1
   8    4    5 ar
   9    4    8 1
  10    5    6 ar
  11    5   27 1
  12    7   28 1
  13    7   29 1
  14    8   30 1
  15    8   31 1
  16    8   32 1
  17    9   10 ar
  18    9   14 ar
  19   10   11 ar
  20   10   33 1
  21   11   12 ar
  22   11   34 1
  23   12   13 ar
  24   12   15 1
  25   13   14 ar
  26   13   35 1
  27   14   36 1
  28   15   16 1
  29   16   17 ar
  30   16   21 ar
  31   17   18 ar
  32   17   37 1
  33   18   19 ar
  34   18   22 1
  35   19   20 ar
  36   19   38 1
  37   20   21 ar
  38   20   39 1
  39   21   40 1
  40   22   23 1
  41   22   24 1
  42   22   25 1
  43   23   41 1
  44   23   42 1
  45   23   43 1

#	End of record

