#	Name: ASD00461003
#	Creating user name:	WinNT
#	Creation time:	15. 06. 2019 18:36

#	Modifying user name:	WinNT
#	Modification time:	15. 06. 2019 18:36

#	Program:	/corina/corina34_cracker 3.40 0067  02.08.2006

@<TRIPOS>MOLECULE
ASD00461003
  31   33    0    0    0
SMALL
NO_CHARGES


@<TRIPOS>ATOM
   1 C1            -0.0164     1.3576     0.0095 C.ar    
   2 C2             0.0021    -0.0041     0.0020 C.ar    
   3 C3             1.1662     2.0840     0.0021 C.ar    
   4 C4             1.2271    -0.7013    -0.0134 C.ar    
   5 C5             2.3773     1.4298    -0.0134 C.ar    
   6 N6             1.4619    -2.0273    -0.0228 N.2     
   7 C7             2.4156     0.0370    -0.0208 C.ar    
   8 C8             2.6799    -2.4184    -0.0365 C.2     
   9 S9             3.7614    -1.0984    -0.0397 S.3     
  10 C10            3.1062    -3.8638    -0.0473 C.3     
  11 O11            4.1454    -4.0467    -1.0110 O.3     
  12 C12            3.6222    -4.2537     1.3393 C.3     
  13 H13            2.2543    -4.4919    -0.3078 H       
  14 C14            3.9331    -5.7281     1.3633 C.ar    
  15 C15            5.2383    -6.1612     1.2261 C.ar    
  16 C16            5.5243    -7.5136     1.2480 C.ar    
  17 C17            4.5040    -8.4342     1.4068 C.ar    
  18 C18            3.1971    -8.0012     1.5441 C.ar    
  19 C19            2.9123    -6.6478     1.5283 C.ar    
  20 Cl20           4.8632   -10.1324     1.4331 Cl      
  21 Cl21           1.2730    -6.1035     1.7011 Cl      
  22 H22           -0.9625     1.8784     0.0168 H       
  23 H23           -0.9278    -0.5533     0.0083 H       
  24 H24            1.1363     3.1635     0.0082 H       
  25 H25            3.2971     1.9958    -0.0199 H       
  26 H26            4.9365    -3.5172    -0.8416 H       
  27 H27            4.5267    -3.6880     1.5627 H       
  28 H28            2.8604    -4.0309     2.0864 H       
  29 H29            6.0351    -5.4430     1.1014 H       
  30 H30            6.5444    -7.8515     1.1408 H       
  31 H31            2.4002    -8.7195     1.6681 H       
@<TRIPOS>BOND
   1    1    2 ar
   2    1    3 ar
   3    1   22 1
   4    2    4 ar
   5    2   23 1
   6    3    5 ar
   7    3   24 1
   8    4    6 1
   9    4    7 ar
  10    5    7 ar
  11    5   25 1
  12    6    8 2
  13    7    9 1
  14    8   10 1
  15    8    9 1
  16   10   11 1
  17   10   12 1
  18   10   13 1
  19   11   26 1
  20   12   14 1
  21   12   27 1
  22   12   28 1
  23   14   15 ar
  24   14   19 ar
  25   15   16 ar
  26   15   29 1
  27   16   17 ar
  28   16   30 1
  29   17   18 ar
  30   17   20 1
  31   18   19 ar
  32   18   31 1
  33   19   21 1

#	End of record

