#	Name: ASD08178519
#	Creating user name:	WinNT
#	Creation time:	15. 06. 2019 21:19

#	Modifying user name:	WinNT
#	Modification time:	15. 06. 2019 21:19

#	Program:	/corina/corina34_cracker 3.40 0067  02.08.2006

@<TRIPOS>MOLECULE
ASD08178519
  40   41    0    0    0
SMALL
NO_CHARGES


@<TRIPOS>ATOM
   1 C1             8.5961     3.6777     2.9700 C.ar    
   2 C2             8.4561     4.9807     3.4099 C.ar    
   3 C3             7.3820     5.7413     2.9872 C.ar    
   4 C4             6.4481     5.1991     2.1242 C.ar    
   5 C5             6.5886     3.8964     1.6835 C.ar    
   6 C6             7.6619     3.1354     2.1074 C.ar    
   7 C7             5.5702     3.3052     0.7431 C.3     
   8 C8             5.9904     3.5655    -0.6805 C.2     
   9 O9             7.0158     4.1715    -0.9090 O.2     
  10 N10            5.2266     3.1249    -1.6998 N.am    
  11 C11            5.5571     3.4576    -3.0131 C.ar    
  12 C12            4.8346     2.9170    -4.0750 C.ar    
  13 C13            5.2025     3.2797    -5.3617 C.ar    
  14 C14            6.2660     4.1575    -5.5129 C.ar    
  15 N15            6.8943     4.6211    -4.4504 N.ar    
  16 N16            6.5556     4.2933    -3.2566 N.ar    
  17 C17            6.7034     4.5809    -6.8915 C.3     
  18 C18            6.6972     6.1083    -6.9819 C.3     
  19 C19            7.1413     6.5381    -8.3815 C.3     
  20 C20            7.1351     8.0654    -8.4719 C.3     
  21 C21            7.5624     8.4790    -9.8184 C.1     
  22 N22            7.8921     8.7982   -10.8576 N.1     
  23 H23            9.4377     3.0849     3.2967 H       
  24 H24            9.1857     5.4043     4.0841 H       
  25 H25            7.2723     6.7591     3.3315 H       
  26 H26            5.6086     5.7932     1.7945 H       
  27 H27            7.7718     2.1177     1.7628 H       
  28 H28            5.5016     2.2304     0.9109 H       
  29 H29            4.5984     3.7640     0.9248 H       
  30 H30            4.4471     2.5764    -1.5199 H       
  31 H31            4.0141     2.2365    -3.9012 H       
  32 H32            4.6768     2.8900    -6.2209 H       
  33 H33            7.7102     4.2097    -7.0832 H       
  34 H34            6.0176     4.1703    -7.6324 H       
  35 H35            5.6904     6.4795    -6.7902 H       
  36 H36            7.3831     6.5189    -6.2409 H       
  37 H37            8.1481     6.1669    -8.5732 H       
  38 H38            6.4554     6.1275    -9.1224 H       
  39 H39            6.1283     8.4366    -8.2802 H       
  40 H40            7.8210     8.4761    -7.7309 H       
@<TRIPOS>BOND
   1    1    2 ar
   2    1    6 ar
   3    1   23 1
   4    2    3 ar
   5    2   24 1
   6    3    4 ar
   7    3   25 1
   8    4    5 ar
   9    4   26 1
  10    5    6 ar
  11    5    7 1
  12    6   27 1
  13    7    8 1
  14    7   28 1
  15    7   29 1
  16    8    9 2
  17    8   10 am
  18   10   11 1
  19   10   30 1
  20   11   12 ar
  21   11   16 ar
  22   12   13 ar
  23   12   31 1
  24   13   14 ar
  25   13   32 1
  26   14   15 ar
  27   14   17 1
  28   15   16 ar
  29   17   18 1
  30   17   33 1
  31   17   34 1
  32   18   19 1
  33   18   35 1
  34   18   36 1
  35   19   20 1
  36   19   37 1
  37   19   38 1
  38   20   21 1
  39   20   39 1
  40   20   40 1
  41   21   22 3

#	End of record

