#	Name: ASD01328012
#	Creating user name:	WinNT
#	Creation time:	15. 06. 2019 19:16

#	Modifying user name:	WinNT
#	Modification time:	15. 06. 2019 19:16

#	Program:	/corina/corina34_cracker 3.40 0067  02.08.2006

@<TRIPOS>MOLECULE
ASD01328012
  44   45    0    0    0
SMALL
NO_CHARGES


@<TRIPOS>ATOM
   1 N1            -0.0056     1.0136     0.4158 N.am    
   2 C2             1.3033     1.6093     0.6953 C.3     
   3 C3             1.8078     2.3412    -0.5511 C.3     
   4 O4             1.9834     1.4050    -1.6163 O.3     
   5 C5             3.1477     3.0116    -0.2327 C.3     
   6 O6             3.5905     3.7581    -1.3679 O.3     
   7 C7             2.9636     3.9544     0.9605 C.3     
   8 O8             4.2230     4.5307     1.3125 O.3     
   9 C9             2.4145     3.1602     2.1485 C.3     
  10 O10            1.1837     2.5374     1.7754 O.3     
  11 C11            2.1712     4.1063     3.3261 C.3     
  12 O12            1.7699     3.3496     4.4699 O.3     
  13 C13           -0.3398    -0.1690     0.9693 C.2     
  14 S14            0.7652    -0.9750     1.9989 S.2     
  15 N15           -2.4892    -0.0092    -0.0418 N.2     
  16 N16           -1.5440    -0.7170     0.7122 N.am    
  17 C17           -3.5948    -0.5851    -0.4019 C.2     
  18 C18           -3.6764    -2.0567    -0.4554 C.ar    
  19 C19           -4.9141    -2.6954    -0.3465 C.ar    
  20 C20           -4.9828    -4.0718    -0.3973 C.ar    
  21 C21           -3.8295    -4.8202    -0.5557 C.ar    
  22 C22           -2.6004    -4.1944    -0.6636 C.ar    
  23 C23           -2.5172    -2.8180    -0.6208 C.ar    
  24 N24           -6.1488    -1.8966    -0.1766 N.pl3   
  25 O25           -7.2365    -2.4441    -0.2014 O.2     
  26 O26           -6.0769    -0.6919    -0.0121 O.2     
  27 H27           -0.6333     1.4722    -0.1644 H       
  28 H28            2.0095     0.8246     0.9668 H       
  29 H29            1.0819     3.0984    -0.8476 H       
  30 H30            1.1743     0.9389    -1.8676 H       
  31 H31            3.8872     2.2497     0.0137 H       
  32 H32            3.7213     3.2239    -2.1632 H       
  33 H33            2.2625     4.7456     0.6948 H       
  34 H34            4.6321     5.0453     0.6033 H       
  35 H35            3.1353     2.3958     2.4390 H       
  36 H36            3.0896     4.6479     3.5527 H       
  37 H37            1.3857     4.8157     3.0658 H       
  38 H38            1.5981     3.8861     5.2559 H       
  39 H39           -1.7562    -1.6015     1.0491 H       
  40 H40           -4.4553     0.0133    -0.6626 H       
  41 H41           -5.9389    -4.5670    -0.3130 H       
  42 H42           -3.8892    -5.8978    -0.5948 H       
  43 H43           -1.7043    -4.7847    -0.7867 H       
  44 H44           -1.5576    -2.3307    -0.7100 H       
@<TRIPOS>BOND
   1    1   13 am
   2    1    2 1
   3    1   27 1
   4    2    3 1
   5    2   10 1
   6    2   28 1
   7    3    4 1
   8    3    5 1
   9    3   29 1
  10    4   30 1
  11    5    6 1
  12    5    7 1
  13    5   31 1
  14    6   32 1
  15    7    8 1
  16    7    9 1
  17    7   33 1
  18    8   34 1
  19    9   10 1
  20    9   11 1
  21    9   35 1
  22   11   12 1
  23   11   36 1
  24   11   37 1
  25   12   38 1
  26   13   14 2
  27   13   16 am
  28   15   16 1
  29   15   17 2
  30   16   39 1
  31   17   18 1
  32   17   40 1
  33   18   19 ar
  34   18   23 ar
  35   19   20 ar
  36   19   24 1
  37   20   21 ar
  38   20   41 1
  39   21   22 ar
  40   21   42 1
  41   22   23 ar
  42   22   43 1
  43   23   44 1
  44   24   25 2
  45   24   26 2

#	End of record

