#	Name: ASD03430664
#	Creating user name:	WinNT
#	Creation time:	15. 06. 2019 20:41

#	Modifying user name:	WinNT
#	Modification time:	15. 06. 2019 20:41

#	Program:	/corina/corina34_cracker 3.40 0067  02.08.2006

@<TRIPOS>MOLECULE
ASD03430664
  35   39    0    0    0
SMALL
NO_CHARGES


@<TRIPOS>ATOM
   1 C1            -0.0167     1.3821     0.0096 C.ar    
   2 C2             0.0021    -0.0041     0.0020 C.ar    
   3 C3             1.2029    -0.6814    -0.0143 C.ar    
   4 C4             2.4089     0.0128    -0.0127 C.ar    
   5 C5             2.3863     1.4039    -0.0106 C.ar    
   6 C6             1.1816     2.0867     0.0020 C.ar    
   7 O7             3.4711    -0.8425     0.0002 O.3     
   8 C8             1.5503    -2.1459    -0.0489 C.3     
   9 C9             3.0368    -2.1471    -0.4295 C.3     
  10 C10            0.4110    -3.8542     1.0020 C.ar    
  11 C11            1.3063    -2.8208     1.2680 C.ar    
  12 C12            0.7182    -2.9027    -1.0443 C.2     
  13 N13            0.0868    -3.8750    -0.3567 N.am    
  14 O14            0.6310    -2.6818    -2.2337 O.2     
  15 C15            1.7700    -2.6079     2.5466 C.ar    
  16 C16            1.3458    -3.4217     3.5825 C.ar    
  17 C17            0.4557    -4.4491     3.3301 C.ar    
  18 C18           -0.0108    -4.6676     2.0502 C.ar    
  19 O19           -1.2114     2.0354     0.0189 O.3     
  20 C20           -1.1866     3.4154     0.3997 C.3     
  21 C21           -0.0353     4.0993    -0.3499 C.3     
  22 O22            1.1866     3.4483     0.0118 O.3     
  23 H23           -0.9268    -0.5551     0.0092 H       
  24 H24            3.3150     1.9552    -0.0181 H       
  25 H25            3.1604    -2.2608    -1.5064 H       
  26 H26            3.5731    -2.9296     0.1074 H       
  27 H27           -0.5215    -4.5149    -0.7585 H       
  28 H28            2.4653    -1.8047     2.7416 H       
  29 H29            1.7095    -3.2548     4.5857 H       
  30 H30            0.1242    -5.0838     4.1386 H       
  31 H31           -0.7061    -5.4720     1.8609 H       
  32 H32           -2.1317     3.8878     0.1318 H       
  33 H33           -1.0256     3.4974     1.4746 H       
  34 H34           -0.1924     4.0104    -1.4249 H       
  35 H35            0.0115     5.1518    -0.0705 H       
@<TRIPOS>BOND
   1    1    2 ar
   2    1    6 ar
   3    1   19 1
   4    2    3 ar
   5    2   23 1
   6    3    4 ar
   7    3    8 1
   8    4    5 ar
   9    4    7 1
  10    5    6 ar
  11    5   24 1
  12    6   22 1
  13    7    9 1
  14    8    9 1
  15    8   11 1
  16    8   12 1
  17    9   25 1
  18    9   26 1
  19   10   11 ar
  20   10   13 1
  21   10   18 ar
  22   11   15 ar
  23   12   13 am
  24   12   14 2
  25   13   27 1
  26   15   16 ar
  27   15   28 1
  28   16   17 ar
  29   16   29 1
  30   17   18 ar
  31   17   30 1
  32   18   31 1
  33   19   20 1
  34   20   21 1
  35   20   32 1
  36   20   33 1
  37   21   22 1
  38   21   34 1
  39   21   35 1

#	End of record

