#	Name: ASD01913126
#	Creating user name:	WinNT
#	Creation time:	15. 06. 2019 20:01

#	Modifying user name:	WinNT
#	Modification time:	15. 06. 2019 20:01

#	Program:	/corina/corina34_cracker 3.40 0067  02.08.2006

@<TRIPOS>MOLECULE
ASD01913126
  45   48    0    0    0
SMALL
NO_CHARGES


@<TRIPOS>ATOM
   1 C1            -0.8024     1.9768     1.1377 C.ar    
   2 C2            -0.8232     0.5494     0.7330 C.2     
   3 N3            -1.8478    -0.3162     0.9026 N.2     
   4 C4            -1.4978    -1.4744     0.4238 C.2     
   5 O5            -0.2523    -1.3890    -0.0624 O.3     
   6 C6             0.1791    -0.1260     0.1197 C.2     
   7 C7            -2.3557    -2.7133     0.4175 C.3     
   8 C8            -2.5742    -3.1760    -1.0248 C.3     
   9 C9            -3.4724    -4.4151    -1.0343 C.3     
  10 C10           -2.7842    -5.5456    -0.2629 C.3     
  11 N11           -2.4399    -5.0602     1.0804 N.am    
  12 C12           -1.6549    -3.8246     1.2054 C.3     
  13 C13           -2.8367    -5.7355     2.1772 C.2     
  14 C14           -3.6957    -6.9294     2.0390 C.ar    
  15 O15           -2.4877    -5.3622     3.2803 O.2     
  16 C16            0.3301     2.7561     0.8988 C.ar    
  17 C17            0.3427     4.0855     1.2785 C.ar    
  18 C18           -0.7639     4.6415     1.8935 C.ar    
  19 C19           -1.8889     3.8725     2.1323 C.ar    
  20 C20           -1.9156     2.5458     1.7526 C.ar    
  21 C21           -3.3422    -7.9481     1.1516 C.ar    
  22 C22           -4.1471    -9.0601     1.0269 C.ar    
  23 C23           -5.3059    -9.1683     1.7806 C.ar    
  24 C24           -5.6618    -8.1595     2.6628 C.ar    
  25 C25           -4.8612    -7.0459     2.7995 C.ar    
  26 F26           -6.0913   -10.2603     1.6545 F       
  27 F27            1.4116     2.2130     0.2984 F       
  28 H28            1.1429     0.2711    -0.1628 H       
  29 H29           -3.3183    -2.4916     0.8782 H       
  30 H30           -3.0506    -2.3778    -1.5941 H       
  31 H31           -1.6132    -3.4207    -1.4772 H       
  32 H32           -4.4245    -4.1779    -0.5598 H       
  33 H33           -3.6466    -4.7303    -2.0631 H       
  34 H34           -3.4602    -6.3969    -0.1817 H       
  35 H35           -1.8766    -5.8458    -0.7867 H       
  36 H36           -0.6552    -3.9843     0.8013 H       
  37 H37           -1.5857    -3.5402     2.2554 H       
  38 H38            1.2184     4.6904     1.0949 H       
  39 H39           -0.7499     5.6802     2.1889 H       
  40 H40           -2.7501     4.3126     2.6130 H       
  41 H41           -2.7950     1.9474     1.9396 H       
  42 H42           -2.4400    -7.8646     0.5639 H       
  43 H43           -3.8749    -9.8483     0.3407 H       
  44 H44           -6.5657    -8.2486     3.2472 H       
  45 H45           -5.1391    -6.2609     3.4872 H       
@<TRIPOS>BOND
   1    1    2 1
   2    1   16 ar
   3    1   20 ar
   4    2    3 1
   5    2    6 2
   6    3    4 2
   7    4    5 1
   8    4    7 1
   9    5    6 1
  10    6   28 1
  11    7    8 1
  12    7   12 1
  13    7   29 1
  14    8    9 1
  15    8   30 1
  16    8   31 1
  17    9   10 1
  18    9   32 1
  19    9   33 1
  20   10   11 1
  21   10   34 1
  22   10   35 1
  23   11   12 1
  24   11   13 am
  25   12   36 1
  26   12   37 1
  27   13   14 1
  28   13   15 2
  29   14   21 ar
  30   14   25 ar
  31   16   17 ar
  32   16   27 1
  33   17   18 ar
  34   17   38 1
  35   18   19 ar
  36   18   39 1
  37   19   20 ar
  38   19   40 1
  39   20   41 1
  40   21   22 ar
  41   21   42 1
  42   22   23 ar
  43   22   43 1
  44   23   24 ar
  45   23   26 1
  46   24   25 ar
  47   24   44 1
  48   25   45 1

#	End of record

