#	Name: ASD00311151
#	Creating user name:	WinNT
#	Creation time:	15. 06. 2019 18:34

#	Modifying user name:	WinNT
#	Modification time:	15. 06. 2019 18:34

#	Program:	/corina/corina34_cracker 3.40 0067  02.08.2006

@<TRIPOS>MOLECULE
ASD00311151
  39   42    0    0    0
SMALL
NO_CHARGES


@<TRIPOS>ATOM
   1 C1            -0.0179     1.4697     0.0101 C.2     
   2 C2             0.0021    -0.0041     0.0020 C.ar    
   3 C3             1.2227    -0.6874    -0.0133 C.ar    
   4 C4             1.2404    -2.0527    -0.0209 C.ar    
   5 C5             0.0396    -2.7674    -0.0133 C.ar    
   6 C6            -1.1802    -2.0856     0.0020 C.ar    
   7 C7            -1.1995    -0.7204     0.0154 C.ar    
   8 O8             1.0261     2.0915     0.0035 O.2     
   9 O9            -1.1941     2.1276     0.0193 O.3     
  10 C10           -0.3149    -6.4072     0.8523 C.2     
  11 C11           -0.4380    -5.0526     1.0918 C.2     
  12 C12           -1.0034    -4.6188     2.3261 C.2     
  13 C13           -1.4166    -5.5628     3.2574 C.2     
  14 C14           -1.2688    -6.9338     2.9640 C.2     
  15 N15           -0.7341    -7.3221     1.7961 N.am    
  16 C16            0.0596    -4.2458    -0.0219 C.2     
  17 C17            0.5329    -4.9575    -1.0470 C.2     
  18 S18            0.4138    -6.6765    -0.7276 S.3     
  19 O19           -1.6284    -7.7709     3.7757 O.2     
  20 C20           -2.0063    -5.1333     4.5464 C.ar    
  21 C21           -3.3375    -5.4283     4.8403 C.ar    
  22 C22           -3.8810    -5.0258     6.0430 C.ar    
  23 C23           -3.1085    -4.3307     6.9564 C.ar    
  24 C24           -1.7876    -4.0352     6.6706 C.ar    
  25 C25           -1.2310    -4.4372     5.4737 C.ar    
  26 O26           -1.1362    -3.2977     2.5887 O.3     
  27 Cl27           1.1860    -4.2711    -2.5016 Cl      
  28 H28            2.1509    -0.1352    -0.0195 H       
  29 H29            2.1826    -2.5803    -0.0330 H       
  30 H30           -2.1078    -2.6388     0.0075 H       
  31 H31           -2.1422    -0.1936     0.0317 H       
  32 H32           -1.1566     3.0938     0.0244 H       
  33 H33           -0.6402    -8.2696     1.6107 H       
  34 H34           -3.9416    -5.9702     4.1278 H       
  35 H35           -4.9116    -5.2537     6.2718 H       
  36 H36           -3.5386    -4.0172     7.8961 H       
  37 H37           -1.1897    -3.4919     7.3874 H       
  38 H38           -0.1985    -4.2098     5.2536 H       
  39 H39           -1.5299    -3.1057     3.4508 H       
@<TRIPOS>BOND
   1    1    2 1
   2    1    8 2
   3    1    9 1
   4    2    3 ar
   5    2    7 ar
   6    3    4 ar
   7    3   28 1
   8    4    5 ar
   9    4   29 1
  10    5    6 ar
  11    5   16 1
  12    6    7 ar
  13    6   30 1
  14    7   31 1
  15    9   32 1
  16   10   11 2
  17   10   15 1
  18   10   18 1
  19   11   12 1
  20   11   16 1
  21   12   13 2
  22   12   26 1
  23   13   14 1
  24   13   20 1
  25   14   15 am
  26   14   19 2
  27   15   33 1
  28   16   17 2
  29   17   18 1
  30   17   27 1
  31   20   21 ar
  32   20   25 ar
  33   21   22 ar
  34   21   34 1
  35   22   23 ar
  36   22   35 1
  37   23   24 ar
  38   23   36 1
  39   24   25 ar
  40   24   37 1
  41   25   38 1
  42   26   39 1

#	End of record

