#	Name: ASD01910233
#	Creating user name:	WinNT
#	Creation time:	15. 06. 2019 19:55

#	Modifying user name:	WinNT
#	Modification time:	15. 06. 2019 19:55

#	Program:	/corina/corina34_cracker 3.40 0067  02.08.2006

@<TRIPOS>MOLECULE
ASD01910233
  45   48    0    0    0
SMALL
NO_CHARGES


@<TRIPOS>ATOM
   1 C1             0.4556     0.9690    -0.1523 C.2     
   2 C2             1.5462     2.0074    -0.0949 C.3     
   3 C3             1.4818     2.8855    -1.3467 C.3     
   4 C4             2.6093     3.9195    -1.3051 C.3     
   5 C5             2.4297     4.8159    -0.0759 C.3     
   6 N6             2.3452     3.9669     1.1202 N.am    
   7 C7             1.3546     2.8821     1.1480 C.3     
   8 C8             3.1608     4.1790     2.1720 C.2     
   9 C9             2.9784     3.4028     3.4178 C.ar    
  10 O10            4.0462     5.0083     2.0968 O.2     
  11 N11            0.6179    -0.3306    -0.1477 N.2     
  12 C12           -0.6281    -0.8525    -0.2106 C.2     
  13 N13           -1.4655     0.1513    -0.2492 N.2     
  14 O14           -0.8594     1.2013    -0.2115 O.3     
  15 C15           -0.9793    -2.2940    -0.2325 C.ar    
  16 C16           -2.3146    -2.6869    -0.2993 C.ar    
  17 C17           -2.6367    -4.0281    -0.3200 C.ar    
  18 C18           -1.6347    -4.9841    -0.2744 C.ar    
  19 C19           -0.3056    -4.5978    -0.2078 C.ar    
  20 C20            0.0256    -3.2587    -0.1921 C.ar    
  21 F21           -1.9545    -6.2966    -0.2943 F       
  22 C22            4.0911     2.9107     4.1028 C.ar    
  23 C23            3.9216     2.1882     5.2631 C.ar    
  24 C24            2.6364     1.9478     5.7544 C.ar    
  25 C25            1.5235     2.4402     5.0690 C.ar    
  26 C26            1.6938     3.1671     3.9116 C.ar    
  27 C27            2.4598     1.1963     6.9605 C.1     
  28 N28            2.3197     0.6001     7.9173 N.1     
  29 H29            2.5167     1.5134    -0.0466 H       
  30 H30            1.5933     2.2621    -2.2338 H       
  31 H31            0.5204     3.3979    -1.3817 H       
  32 H32            3.5700     3.4080    -1.2451 H       
  33 H33            2.5771     4.5294    -2.2079 H       
  34 H34            3.2824     5.4889     0.0133 H       
  35 H35            1.5126     5.3961    -0.1777 H       
  36 H36            0.3498     3.3047     1.1461 H       
  37 H37            1.4979     2.2793     2.0447 H       
  38 H38           -3.0963    -1.9424    -0.3346 H       
  39 H39           -3.6714    -4.3335    -0.3714 H       
  40 H40            0.4723    -5.3461    -0.1724 H       
  41 H41            1.0617    -2.9584    -0.1403 H       
  42 H42            5.0848     3.0963     3.7226 H       
  43 H43            4.7823     1.8073     5.7927 H       
  44 H44            0.5296     2.2541     5.4485 H       
  45 H45            0.8333     3.5482     3.3818 H       
@<TRIPOS>BOND
   1    1   11 2
   2    1    2 1
   3    1   14 1
   4    2    3 1
   5    2    7 1
   6    2   29 1
   7    3    4 1
   8    3   30 1
   9    3   31 1
  10    4    5 1
  11    4   32 1
  12    4   33 1
  13    5    6 1
  14    5   34 1
  15    5   35 1
  16    6    7 1
  17    6    8 am
  18    7   36 1
  19    7   37 1
  20    8    9 1
  21    8   10 2
  22    9   22 ar
  23    9   26 ar
  24   11   12 1
  25   12   13 2
  26   12   15 1
  27   13   14 1
  28   15   16 ar
  29   15   20 ar
  30   16   17 ar
  31   16   38 1
  32   17   18 ar
  33   17   39 1
  34   18   19 ar
  35   18   21 1
  36   19   20 ar
  37   19   40 1
  38   20   41 1
  39   22   23 ar
  40   22   42 1
  41   23   24 ar
  42   23   43 1
  43   24   25 ar
  44   24   27 1
  45   25   26 ar
  46   25   44 1
  47   26   45 1
  48   27   28 3

#	End of record

