#	Name: ASD00460060
#	Creating user name:	WinNT
#	Creation time:	15. 06. 2019 18:36

#	Modifying user name:	WinNT
#	Modification time:	15. 06. 2019 18:36

#	Program:	/corina/corina34_cracker 3.40 0067  02.08.2006

@<TRIPOS>MOLECULE
ASD00460060
  68   72    0    0    0
SMALL
NO_CHARGES


@<TRIPOS>ATOM
   1 C1            -0.0906     1.2347     0.1159 C.ar    
   2 C2             1.0495     1.9677    -0.1553 C.ar    
   3 C3             2.2798     1.3394    -0.2046 C.ar    
   4 C4             2.3701    -0.0220     0.0179 C.ar    
   5 C5             1.2300    -0.7549     0.2900 C.ar    
   6 C6            -0.0004    -0.1268     0.3379 C.ar    
   7 C7             3.7112    -0.7071    -0.0368 C.3     
   8 C8             4.4102    -0.3558    -1.3517 C.3     
   9 C9             4.5583    -0.2462     1.1212 C.ar    
  10 C10            4.8866    -1.1299     2.1323 C.ar    
  11 C11            5.6636    -0.7071     3.1945 C.ar    
  12 C12            6.1128     0.5993     3.2455 C.ar    
  13 C13            5.7853     1.4827     2.2339 C.ar    
  14 C14            5.0119     1.0587     1.1695 C.ar    
  15 C15            5.7142    -1.1481    -1.4635 C.3     
  16 N16            6.3835    -0.8118    -2.7226 N.am    
  17 C17            7.2631     0.2084    -2.7665 C.2     
  18 C18            6.0967    -1.5843    -3.9338 C.3     
  19 C19            4.9257    -0.9439    -4.6819 C.3     
  20 N20            4.6381    -1.7185    -5.8964 N.3     
  21 N21            7.8789     0.5179    -3.9248 N.am    
  22 O22            7.5012     0.8496    -1.7614 O.2     
  23 C23            8.7828     1.5663    -3.9700 C.2     
  24 C24            3.3787    -1.2800    -6.5151 C.3     
  25 C25            3.1484    -2.0700    -7.8061 C.3     
  26 O26            3.1474    -3.4690    -7.5093 O.3     
  27 C27            4.3593    -3.9304    -6.9063 C.3     
  28 C28            4.6019    -3.1593    -5.6061 C.3     
  29 S29            9.6554     2.0780    -5.4079 S.3     
  30 C30           10.4538     3.3505    -4.4871 C.ar    
  31 C31            9.9999     3.2905    -3.1662 C.ar    
  32 N32            9.0992     2.3082    -2.9658 N.2     
  33 C33           11.3857     4.3126    -4.8692 C.ar    
  34 C34           11.8687     5.2138    -3.9469 C.ar    
  35 C35           11.4265     5.1652    -2.6328 C.ar    
  36 C36           10.5085     4.2250    -2.2391 C.ar    
  37 H37           -1.0512     1.7263     0.1588 H       
  38 H38            0.9791     3.0313    -0.3291 H       
  39 H39            3.1705     1.9120    -0.4172 H       
  40 H40            1.3004    -1.8186     0.4631 H       
  41 H41           -0.8911    -0.6993     0.5508 H       
  42 H42            3.5705    -1.7864     0.0229 H       
  43 H43            3.7587    -0.6084    -2.1882 H       
  44 H44            4.6306     0.7115    -1.3721 H       
  45 H45            4.5357    -2.1505     2.0925 H       
  46 H46            5.9195    -1.3973     3.9848 H       
  47 H47            6.7193     0.9298     4.0757 H       
  48 H48            6.1359     2.5034     2.2739 H       
  49 H49            4.7560     1.7489     0.3792 H       
  50 H50            6.3657    -0.8956    -0.6270 H       
  51 H51            5.4938    -2.2154    -1.4431 H       
  52 H52            6.9772    -1.5929    -4.5763 H       
  53 H53            5.8370    -2.6068    -3.6596 H       
  54 H54            4.0453    -0.9352    -4.0394 H       
  55 H55            5.1854     0.0786    -4.9561 H       
  56 H56            7.6889     0.0064    -4.7268 H       
  57 H57            2.5530    -1.4594    -5.8264 H       
  58 H58            3.4372    -0.2161    -6.7449 H       
  59 H59            2.1880    -1.7890    -8.2384 H       
  60 H60            3.9461    -1.8489    -8.5153 H       
  61 H61            4.2748    -4.9949    -6.6877 H       
  62 H62            5.1923    -3.7635    -7.5893 H       
  63 H63            5.5533    -3.4672    -5.1724 H       
  64 H64            3.7958    -3.3687    -4.9029 H       
  65 H65           11.7308     4.3516    -5.8918 H       
  66 H66           12.5917     5.9580    -4.2463 H       
  67 H67           11.8084     5.8743    -1.9132 H       
  68 H68           10.1734     4.1993    -1.2127 H       
@<TRIPOS>BOND
   1    1    2 ar
   2    1    6 ar
   3    1   37 1
   4    2    3 ar
   5    2   38 1
   6    3    4 ar
   7    3   39 1
   8    4    5 ar
   9    4    7 1
  10    5    6 ar
  11    5   40 1
  12    6   41 1
  13    7    8 1
  14    7    9 1
  15    7   42 1
  16    8   15 1
  17    8   43 1
  18    8   44 1
  19    9   10 ar
  20    9   14 ar
  21   10   11 ar
  22   10   45 1
  23   11   12 ar
  24   11   46 1
  25   12   13 ar
  26   12   47 1
  27   13   14 ar
  28   13   48 1
  29   14   49 1
  30   15   16 1
  31   15   50 1
  32   15   51 1
  33   16   17 am
  34   16   18 1
  35   17   21 am
  36   17   22 2
  37   18   19 1
  38   18   52 1
  39   18   53 1
  40   19   20 1
  41   19   54 1
  42   19   55 1
  43   20   24 1
  44   20   28 1
  45   21   23 1
  46   21   56 1
  47   23   29 1
  48   23   32 2
  49   24   25 1
  50   24   57 1
  51   24   58 1
  52   25   26 1
  53   25   59 1
  54   25   60 1
  55   26   27 1
  56   27   28 1
  57   27   61 1
  58   27   62 1
  59   28   63 1
  60   28   64 1
  61   29   30 1
  62   30   31 ar
  63   30   33 ar
  64   31   32 1
  65   31   36 ar
  66   33   34 ar
  67   33   65 1
  68   34   35 ar
  69   34   66 1
  70   35   36 ar
  71   35   67 1
  72   36   68 1

#	End of record

