#	Name: ASD03492009
#	Creating user name:	WinNT
#	Creation time:	15. 06. 2019 20:42

#	Modifying user name:	WinNT
#	Modification time:	15. 06. 2019 20:42

#	Program:	/corina/corina34_cracker 3.40 0067  02.08.2006

@<TRIPOS>MOLECULE
ASD03492009
  66   69    0    0    0
SMALL
NO_CHARGES


@<TRIPOS>ATOM
   1 C1            -0.0157     1.3045     0.0092 C.2     
   2 N2             0.0021    -0.0041     0.0020 N.2     
   3 N3            -1.3208    -0.4647     0.0122 N.pl3   
   4 C4            -2.1392     0.6226     0.0258 C.2     
   5 C5            -1.3471     1.7295     0.0303 C.2     
   6 C6            -1.7286    -1.8056     0.0084 C.ar    
   7 N7            -3.5336     0.6056     0.0384 N.am    
   8 C8            -4.2215     1.7645     0.0512 C.2     
   9 N9            -5.5692     1.7481     0.0634 N.am    
  10 O10           -3.6264     2.8248     0.0519 O.2     
  11 C11           -6.2786     2.9433     0.0766 C.2     
  12 S12           -5.5734     4.5007     0.0785 S.3     
  13 C13           -7.1738     5.2369     0.0977 C.2     
  14 C14           -8.0798     4.2576     0.1009 C.2     
  15 N15           -7.5713     3.0393     0.0838 N.2     
  16 C16           -0.9957    -2.7536    -0.6929 C.ar    
  17 C17           -1.4002    -4.0742    -0.6947 C.ar    
  18 C18           -2.5340    -4.4525     0.0006 C.ar    
  19 C19           -3.2662    -3.5106     0.6997 C.ar    
  20 C20           -2.8631    -2.1896     0.7107 C.ar    
  21 C21           -9.5635     4.5207     0.1169 C.3     
  22 C22          -10.2217     3.8019    -1.0625 C.3     
  23 O23          -11.6287     4.0514    -1.0474 O.3     
  24 C24          -12.3421     3.4218    -2.1135 C.3     
  25 C25          -13.8084     3.7507    -1.9998 C.ar    
  26 C26          -14.3158     4.8714    -2.6306 C.ar    
  27 C27          -15.6603     5.1738    -2.5275 C.ar    
  28 C28          -16.4993     4.3539    -1.7919 C.ar    
  29 C29          -15.9900     3.2318    -1.1606 C.ar    
  30 C30          -14.6461     2.9285    -1.2695 C.ar    
  31 C31            1.1951     2.2017     0.0025 C.3     
  32 C32            1.3963     2.7973     1.3973 C.3     
  33 C33            2.4307     1.3880    -0.3877 C.3     
  34 C34            0.9877     3.3306    -1.0091 C.3     
  35 C35           -2.9728    -5.8942    -0.0038 C.3     
  36 F36          -17.8138     4.6487    -1.6900 F       
  37 H37           -1.6872     2.7545     0.0407 H       
  38 H38           -4.0084    -0.2403     0.0378 H       
  39 H39           -6.0439     0.9023     0.0628 H       
  40 H40           -7.3847     6.2961     0.1061 H       
  41 H41           -0.1105    -2.4586    -1.2367 H       
  42 H42           -0.8305    -4.8121    -1.2401 H       
  43 H43           -4.1517    -3.8089     1.2412 H       
  44 H44           -3.4354    -1.4543     1.2569 H       
  45 H45           -9.9880     4.1511     1.0503 H       
  46 H46           -9.7433     5.5927     0.0353 H       
  47 H47           -9.7972     4.1715    -1.9960 H       
  48 H48          -10.0419     2.7300    -0.9809 H       
  49 H49          -11.9616     3.7835    -3.0687 H       
  50 H50          -12.2063     2.3420    -2.0537 H       
  51 H51          -13.6611     5.5109    -3.2040 H       
  52 H52          -16.0564     6.0495    -3.0201 H       
  53 H53          -16.6435     2.5915    -0.5866 H       
  54 H54          -14.2486     2.0533    -0.7771 H       
  55 H55            1.5441     1.9930     2.1180 H       
  56 H56            2.2721     3.4462     1.3925 H       
  57 H57            0.5161     3.3770     1.6753 H       
  58 H58            2.2874     0.9636    -1.3814 H       
  59 H59            3.3064     2.0369    -0.3925 H       
  60 H60            2.5784     0.5837     0.3330 H       
  61 H61            0.1075     3.9104    -0.7312 H       
  62 H62            1.8635     3.9796    -1.0140 H       
  63 H63            0.8444     2.9063    -2.0028 H       
  64 H64           -2.5072    -6.4183     0.8308 H       
  65 H65           -4.0571    -5.9443     0.0952 H       
  66 H66           -2.6714    -6.3628    -0.9407 H       
@<TRIPOS>BOND
   1    1    2 2
   2    1   31 1
   3    1    5 1
   4    2    3 1
   5    3    4 1
   6    3    6 1
   7    4    5 2
   8    4    7 1
   9    5   37 1
  10    6   16 ar
  11    6   20 ar
  12    7    8 am
  13    7   38 1
  14    8    9 am
  15    8   10 2
  16    9   11 1
  17    9   39 1
  18   11   12 1
  19   11   15 2
  20   12   13 1
  21   13   14 2
  22   13   40 1
  23   14   15 1
  24   14   21 1
  25   16   17 ar
  26   16   41 1
  27   17   18 ar
  28   17   42 1
  29   18   19 ar
  30   18   35 1
  31   19   20 ar
  32   19   43 1
  33   20   44 1
  34   21   22 1
  35   21   45 1
  36   21   46 1
  37   22   23 1
  38   22   47 1
  39   22   48 1
  40   23   24 1
  41   24   25 1
  42   24   49 1
  43   24   50 1
  44   25   26 ar
  45   25   30 ar
  46   26   27 ar
  47   26   51 1
  48   27   28 ar
  49   27   52 1
  50   28   29 ar
  51   28   36 1
  52   29   30 ar
  53   29   53 1
  54   30   54 1
  55   31   32 1
  56   31   33 1
  57   31   34 1
  58   32   55 1
  59   32   56 1
  60   32   57 1
  61   33   58 1
  62   33   59 1
  63   33   60 1
  64   34   61 1
  65   34   62 1
  66   34   63 1
  67   35   64 1
  68   35   65 1
  69   35   66 1

#	End of record

