#	Name: ASD01882328
#	Creating user name:	WinNT
#	Creation time:	15. 06. 2019 19:44

#	Modifying user name:	WinNT
#	Modification time:	15. 06. 2019 19:44

#	Program:	/corina/corina34_cracker 3.40 0067  02.08.2006

@<TRIPOS>MOLECULE
ASD01882328
  53   57    0    0    0
SMALL
NO_CHARGES


@<TRIPOS>ATOM
   1 N1            -0.9874     2.2043    -0.1872 N.3     
   2 C2            -0.4791     0.8303    -0.0798 C.3     
   3 C3            -1.6382    -0.1313    -0.0255 C.2     
   4 C4            -2.2856    -0.3874     1.1954 C.2     
   5 C5            -3.3238    -1.2480     1.2497 C.2     
   6 N6            -3.7590    -1.8800     0.1222 N.pl3   
   7 C7            -3.1466    -1.6496    -1.0853 C.2     
   8 C8            -2.0654    -0.7504    -1.1588 C.2     
   9 C9            -4.7528    -2.7747    -0.1290 C.2     
  10 N10           -4.7212    -3.0493    -1.4075 N.2     
  11 N11           -3.7768    -2.3906    -1.9821 N.2     
  12 C12           -1.3823    -0.4856    -2.4757 C.3     
  13 F13           -0.1781    -1.1957    -2.5276 F       
  14 F14           -2.2127    -0.8987    -3.5231 F       
  15 F15           -1.1221     0.8834    -2.5991 F       
  16 C16           -5.7142    -3.3455     0.8815 C.3     
  17 C17           -6.9532    -2.4521     0.9680 C.3     
  18 C18           -8.1048    -2.9255     1.8571 C.3     
  19 C19           -7.2282    -1.7526     2.3006 C.3     
  20 C20            0.1170     3.1713    -0.2427 C.3     
  21 C21            0.6027     3.3554    -1.6975 C.3     
  22 O22            0.9219     4.7598    -1.8051 O.3     
  23 C23           -0.1256     5.4444    -1.0841 C.3     
  24 C24           -0.3732     4.5773     0.1702 C.3     
  25 C25           -1.8412     4.5462     0.5093 C.ar    
  26 C26           -2.2742     4.9854     1.7464 C.ar    
  27 C27           -3.6208     4.9569     2.0575 C.ar    
  28 C28           -4.5344     4.4895     1.1313 C.ar    
  29 C29           -4.1014     4.0511    -0.1061 C.ar    
  30 C30           -2.7553     4.0837    -0.4188 C.ar    
  31 H31           -1.5954     2.3035    -0.9863 H       
  32 H32            0.1408     0.6034    -0.9472 H       
  33 H33            0.1164     0.7331     0.8279 H       
  34 H34           -1.9503     0.1069     2.0952 H       
  35 H35           -3.8136    -1.4379     2.1934 H       
  36 H36           -6.0103    -4.3487     0.5748 H       
  37 H37           -5.2307    -3.3917     1.8573 H       
  38 H38           -7.2103    -1.9151     0.0549 H       
  39 H39           -9.1195    -2.6996     1.5292 H       
  40 H40           -7.9797    -3.8734     2.3805 H       
  41 H41           -6.5263    -1.9290     3.1158 H       
  42 H42           -7.6661    -0.7551     2.2645 H       
  43 H43            0.9388     2.8482     0.3963 H       
  44 H44            1.4900     2.7495    -1.8809 H       
  45 H45           -0.1894     3.0915    -2.3983 H       
  46 H46            0.2022     6.4433    -0.7962 H       
  47 H47           -1.0294     5.5009    -1.6907 H       
  48 H48            0.2068     4.9515     1.0138 H       
  49 H49           -1.5605     5.3506     2.4700 H       
  50 H50           -3.9591     5.2994     3.0243 H       
  51 H51           -5.5864     4.4665     1.3746 H       
  52 H52           -4.8152     3.6856    -0.8296 H       
  53 H53           -2.4170     3.7412    -1.3856 H       
@<TRIPOS>BOND
   1    1    2 1
   2    1   20 1
   3    1   31 1
   4    2    3 1
   5    2   32 1
   6    2   33 1
   7    3    4 1
   8    3    8 2
   9    4    5 2
  10    4   34 1
  11    5    6 1
  12    5   35 1
  13    6    7 1
  14    6    9 1
  15    7    8 1
  16    7   11 2
  17    8   12 1
  18    9   10 2
  19    9   16 1
  20   10   11 1
  21   12   13 1
  22   12   14 1
  23   12   15 1
  24   16   17 1
  25   16   36 1
  26   16   37 1
  27   17   18 1
  28   17   19 1
  29   17   38 1
  30   18   19 1
  31   18   39 1
  32   18   40 1
  33   19   41 1
  34   19   42 1
  35   20   21 1
  36   20   24 1
  37   20   43 1
  38   21   22 1
  39   21   44 1
  40   21   45 1
  41   22   23 1
  42   23   24 1
  43   23   46 1
  44   23   47 1
  45   24   25 1
  46   24   48 1
  47   25   26 ar
  48   25   30 ar
  49   26   27 ar
  50   26   49 1
  51   27   28 ar
  52   27   50 1
  53   28   29 ar
  54   28   51 1
  55   29   30 ar
  56   29   52 1
  57   30   53 1

#	End of record

