#	Name: ASD03080229
#	Creating user name:	WinNT
#	Creation time:	15. 06. 2019 20:26

#	Modifying user name:	WinNT
#	Modification time:	15. 06. 2019 20:26

#	Program:	/corina/corina34_cracker 3.40 0067  02.08.2006

@<TRIPOS>MOLECULE
ASD03080229
  35   37    0    0    0
SMALL
NO_CHARGES


@<TRIPOS>ATOM
   1 N1            -0.0178     1.4636     0.0101 N.4     
   2 C2             0.0021    -0.0041     0.0020 C.3     
   3 C3             0.6724    -0.5159     1.2788 C.3     
   4 C4             2.1073     0.0153     1.3436 C.3     
   5 C5             2.0784     1.5450     1.2764 C.3     
   6 C6             1.3560     1.9804    -0.0003 C.3     
   7 N7             3.4498     2.0600     1.2624 N.am    
   8 C8             3.7056     3.3077     1.7031 C.2     
   9 C9             5.0817     3.8246     1.6890 C.2     
  10 O10            2.7977     4.0063     2.1125 O.2     
  11 S11            6.4787     2.9281     1.1195 S.3     
  12 C12            5.4402     5.0441     2.1030 C.2     
  13 C13            7.5521     4.2763     1.4770 C.ar    
  14 C14            8.9357     4.4074     1.3107 C.ar    
  15 C15            6.8094     5.3397     2.0043 C.ar    
  16 C16            7.4885     6.5308     2.3575 C.ar    
  17 C17            8.8330     6.6347     2.1883 C.ar    
  18 C18            9.5667     5.5754     1.6680 C.ar    
  19 Br19           9.9395     2.9743     0.5935 Br      
  20 H20           -0.5076     1.7968    -0.8067 H       
  21 H21           -0.4919     1.7880     0.8396 H       
  22 H22           -1.0196    -0.3806    -0.0474 H       
  23 H23            0.5599    -0.3547    -0.8663 H       
  24 H24            0.1152    -0.1661     2.1478 H       
  25 H25            0.6878    -1.6057     1.2701 H       
  26 H26            2.5707    -0.2998     2.2786 H       
  27 H27            2.6791    -0.3758     0.5021 H       
  28 H28            1.5503     1.9376     2.1454 H       
  29 H29            1.8849     1.5875    -0.8685 H       
  30 H30            1.3338     3.0690    -0.0513 H       
  31 H31            4.1737     1.5030     0.9360 H       
  32 H32            4.7240     5.7552     2.4876 H       
  33 H33            6.9337     7.3634     2.7642 H       
  34 H34            9.3367     7.5501     2.4618 H       
  35 H35           10.6346     5.6719     1.5386 H       
@<TRIPOS>BOND
   1    1    2 1
   2    1    6 1
   3    1   20 1
   4    1   21 1
   5    2    3 1
   6    2   22 1
   7    2   23 1
   8    3    4 1
   9    3   24 1
  10    3   25 1
  11    4    5 1
  12    4   26 1
  13    4   27 1
  14    5    6 1
  15    5    7 1
  16    5   28 1
  17    6   29 1
  18    6   30 1
  19    7    8 am
  20    7   31 1
  21    8    9 1
  22    8   10 2
  23    9   12 2
  24    9   11 1
  25   11   13 1
  26   12   15 1
  27   12   32 1
  28   13   15 ar
  29   13   14 ar
  30   14   18 ar
  31   14   19 1
  32   15   16 ar
  33   16   17 ar
  34   16   33 1
  35   17   18 ar
  36   17   34 1
  37   18   35 1

#	End of record

