#	Name: ASD01911488
#	Creating user name:	WinNT
#	Creation time:	15. 06. 2019 19:57

#	Modifying user name:	WinNT
#	Modification time:	15. 06. 2019 19:57

#	Program:	/corina/corina34_cracker 3.40 0067  02.08.2006

@<TRIPOS>MOLECULE
ASD01911488
  36   36    0    0    0
SMALL
NO_CHARGES


@<TRIPOS>ATOM
   1 C1            -0.0162     1.3436     0.0094 C.2     
   2 N2             0.0021    -0.0041     0.0020 N.am    
   3 O3             1.0277     1.9654     0.0028 O.2     
   4 O4            -1.1912     2.0008     0.0186 O.3     
   5 C5             1.2806    -0.7192    -0.0140 C.3     
   6 C6             1.0214    -2.2271    -0.0197 C.3     
   7 C7             2.3566    -2.9740    -0.0364 C.3     
   8 C8             2.0990    -4.4764    -0.1678 C.3     
   9 C9             3.1943    -2.4945    -1.2235 C.3     
  10 O10            3.0619    -2.7161     1.1794 O.3     
  11 C11           -1.1349     3.4517     0.0262 C.3     
  12 C12           -2.5351     4.0087     0.0359 C.ar    
  13 C13           -3.1717     4.2577     1.2374 C.ar    
  14 C14           -4.4561     4.7686     1.2463 C.ar    
  15 C15           -5.1038     5.0309     0.0536 C.ar    
  16 C16           -4.4670     4.7828    -1.1480 C.ar    
  17 C17           -3.1809     4.2760    -1.1568 C.ar    
  18 H18           -0.8313    -0.5005     0.0073 H       
  19 H19            1.8400    -0.4434    -0.9079 H       
  20 H20            1.8570    -0.4529     0.8719 H       
  21 H21            0.4620    -2.5030     0.8742 H       
  22 H22            0.4450    -2.4934    -0.9056 H       
  23 H23            1.5610    -4.6731    -1.0951 H       
  24 H24            3.0502    -5.0085    -0.1797 H       
  25 H25            1.5022    -4.8180     0.6780 H       
  26 H26            3.3779    -1.4242    -1.1300 H       
  27 H27            4.1456    -3.0266    -1.2355 H       
  28 H28            2.6563    -2.6912    -2.1509 H       
  29 H29            2.5889    -2.9952     1.9753 H       
  30 H30           -0.6031     3.7900     0.9155 H       
  31 H31           -0.6116     3.7997    -0.8644 H       
  32 H32           -2.6656     4.0527     2.1692 H       
  33 H33           -4.9537     4.9624     2.1850 H       
  34 H34           -6.1076     5.4294     0.0605 H       
  35 H35           -4.9732     4.9875    -2.0798 H       
  36 H36           -2.6820     4.0856    -2.0955 H       
@<TRIPOS>BOND
   1    1    2 am
   2    1    3 2
   3    1    4 1
   4    2    5 1
   5    2   18 1
   6    4   11 1
   7    5    6 1
   8    5   19 1
   9    5   20 1
  10    6    7 1
  11    6   21 1
  12    6   22 1
  13    7    8 1
  14    7    9 1
  15    7   10 1
  16    8   23 1
  17    8   24 1
  18    8   25 1
  19    9   26 1
  20    9   27 1
  21    9   28 1
  22   10   29 1
  23   11   12 1
  24   11   30 1
  25   11   31 1
  26   12   13 ar
  27   12   17 ar
  28   13   14 ar
  29   13   32 1
  30   14   15 ar
  31   14   33 1
  32   15   16 ar
  33   15   34 1
  34   16   17 ar
  35   16   35 1
  36   17   36 1

#	End of record

