#	Name: ASD01940112
#	Creating user name:	WinNT
#	Creation time:	15. 06. 2019 20:11

#	Modifying user name:	WinNT
#	Modification time:	15. 06. 2019 20:11

#	Program:	/corina/corina34_cracker 3.40 0067  02.08.2006

@<TRIPOS>MOLECULE
ASD01940112
  36   37    0    0    0
SMALL
NO_CHARGES


@<TRIPOS>ATOM
   1 C1             0.2235     1.4325    -0.1834 C.3     
   2 F2            -2.1581    -4.9537     0.2185 F       
   3 C3            -1.2427    -5.3013     1.1493 C.ar    
   4 C4             0.0898    -4.9498     0.9786 C.ar    
   5 C5             1.0306    -5.3102     1.9419 C.ar    
   6 C6             0.6319    -6.0179     3.0660 C.ar    
   7 C7            -0.6962    -6.3656     3.2304 C.ar    
   8 C8            -1.6335    -6.0043     2.2777 C.ar    
   9 N9             0.4878    -4.2349    -0.1595 N.pl3   
  10 N10            2.3767    -4.9586     1.7746 N.am    
  11 C11            0.4229    -2.8383    -0.1659 C.ar    
  12 C12            0.0332    -2.1545     0.9778 C.ar    
  13 C13           -0.0299    -0.7742     0.9684 C.ar    
  14 C14            0.2944    -0.0729    -0.1779 C.ar    
  15 C15            0.6833    -0.7494    -1.3202 C.ar    
  16 C16            0.7543    -2.1299    -1.3168 C.ar    
  17 F17            1.1346    -2.7906    -2.4321 F       
  18 F18           -2.9308    -6.3414     2.4463 F       
  19 S19            3.5706    -5.9851     2.2875 S.o2    
  20 O20            4.7754    -5.3577     1.8704 O.2     
  21 O21            3.2896    -6.1887     3.6655 O.2     
  22 C22            3.2895    -7.5114     1.3484 C.3     
  23 O23            4.2725    -8.4826     1.7124 O.3     
  24 H24            1.1863     1.8426     0.1214 H       
  25 H25           -0.0186     1.7812    -1.1873 H       
  26 H26           -0.5484     1.7624     0.5119 H       
  27 H27            1.3595    -6.2980     3.8134 H       
  28 H28           -1.0040    -6.9171     4.1066 H       
  29 H29            0.8081    -4.7091    -0.9427 H       
  30 H30            2.6092    -4.1138     1.3584 H       
  31 H31           -0.2208    -2.7010     1.8740 H       
  32 H32           -0.3331    -0.2423     1.8581 H       
  33 H33            0.9359    -0.1983    -2.2140 H       
  34 H34            2.2956    -7.8985     1.5732 H       
  35 H35            3.3646    -7.3007     0.2816 H       
  36 H36            4.1830    -9.3260     1.2479 H       
@<TRIPOS>BOND
   1    1   14 1
   2    1   24 1
   3    1   25 1
   4    1   26 1
   5    2    3 1
   6    3    4 ar
   7    3    8 ar
   8    4    5 ar
   9    4    9 1
  10    5    6 ar
  11    5   10 1
  12    6    7 ar
  13    6   27 1
  14    7    8 ar
  15    7   28 1
  16    8   18 1
  17    9   11 1
  18    9   29 1
  19   10   19 am
  20   10   30 1
  21   11   12 ar
  22   11   16 ar
  23   12   13 ar
  24   12   31 1
  25   13   14 ar
  26   13   32 1
  27   14   15 ar
  28   15   16 ar
  29   15   33 1
  30   16   17 1
  31   19   20 2
  32   19   21 2
  33   19   22 1
  34   22   23 1
  35   22   34 1
  36   22   35 1
  37   23   36 1

#	End of record

