#	Name: ASD02038324
#	Creating user name:	WinNT
#	Creation time:	15. 06. 2019 20:16

#	Modifying user name:	WinNT
#	Modification time:	15. 06. 2019 20:16

#	Program:	/corina/corina34_cracker 3.40 0067  02.08.2006

@<TRIPOS>MOLECULE
ASD02038324
  59   62    0    0    0
SMALL
NO_CHARGES


@<TRIPOS>ATOM
   1 C1            -0.0628     1.6713     0.1975 C.3     
   2 C2            -0.1114     0.1415     0.2035 C.3     
   3 N3             0.8293    -0.3720     1.2090 N.3     
   4 C4             0.7569    -1.8365     1.2982 C.3     
   5 C5             1.2569    -2.4525    -0.0100 C.3     
   6 C6             1.3338    -3.9732     0.1390 C.3     
   7 O7             1.9099    -4.5389    -1.0401 O.3     
   8 C8             2.0507    -5.8908    -1.0708 C.ar    
   9 C9             2.6003    -6.4989    -2.1813 C.ar    
  10 C10            1.6447    -6.6549     0.0210 C.ar    
  11 C11            1.7805    -8.0253     0.0078 C.ar    
  12 C12            2.3271    -8.6589    -1.1035 C.ar    
  13 C13            2.7429    -7.8903    -2.2068 C.ar    
  14 C14            2.2000     0.0708     0.9182 C.3     
  15 C15            2.2487     1.6005     0.9122 C.3     
  16 N16            1.3080     2.1140    -0.0933 N.3     
  17 C17            1.3769     3.5072    -0.1781 C.ar    
  18 C18            0.5642     4.1907    -1.0734 C.ar    
  19 C19            0.6344     5.5676    -1.1552 C.ar    
  20 C20            1.5134     6.2662    -0.3463 C.ar    
  21 C21            2.3245     5.5877     0.5462 C.ar    
  22 C22            2.2541     4.2113     0.6366 C.ar    
  23 N23            2.4711   -10.0311    -1.1362 N.am    
  24 C24            2.9990   -10.6458    -2.2090 C.2     
  25 C25            3.4268    -9.9211    -3.3419 C.2     
  26 C26            3.3161    -8.5700    -3.3700 C.2     
  27 O27            3.1114   -11.8595    -2.2028 O.2     
  28 O28            0.3542    -2.1225    -1.0675 O.3     
  29 Cl29           1.5990     7.9968    -0.4518 Cl      
  30 C30           -1.5285    -0.3228     0.5461 C.3     
  31 C31            3.1484    -0.4659     1.9922 C.3     
  32 H32           -0.7384     2.0536    -0.5676 H       
  33 H33           -0.3674     2.0486     1.1737 H       
  34 H34            0.1670    -0.2350    -0.7808 H       
  35 H35            1.3796    -2.1814     2.1236 H       
  36 H36           -0.2759    -2.1393     1.4710 H       
  37 H37            2.2469    -2.0595    -0.2415 H       
  38 H38            1.9521    -4.2230     1.0013 H       
  39 H39            0.3309    -4.3755     0.2823 H       
  40 H40            2.9178    -5.9045    -3.0252 H       
  41 H41            1.2198    -6.1679     0.8862 H       
  42 H42            1.4631    -8.6079     0.8601 H       
  43 H43            2.5047    -0.3066    -0.0579 H       
  44 H44            1.9703     1.9771     1.8965 H       
  45 H45            3.2582     1.9313     0.6682 H       
  46 H46           -0.1217     3.6460    -1.7052 H       
  47 H47            0.0030     6.0996    -1.8514 H       
  48 H48            3.0102     6.1353     1.1759 H       
  49 H49            2.8872     3.6824     1.3336 H       
  50 H50            2.1875   -10.5597    -0.3739 H       
  51 H51            3.8472   -10.4443    -4.1880 H       
  52 H52            3.6407    -8.0077    -4.2331 H       
  53 H53           -0.5254    -2.5124    -0.9698 H       
  54 H54           -2.2262     0.0599    -0.1988 H       
  55 H55           -1.5628    -1.4122     0.5502 H       
  56 H56           -1.8059     0.0533     1.5308 H       
  57 H57            3.1955    -1.5528     1.9251 H       
  58 H58            4.1439    -0.0490     1.8391 H       
  59 H59            2.7817    -0.1782     2.9775 H       
@<TRIPOS>BOND
   1    1    2 1
   2    1   16 1
   3    1   32 1
   4    1   33 1
   5    2    3 1
   6    2   30 1
   7    2   34 1
   8    3    4 1
   9    3   14 1
  10    4    5 1
  11    4   35 1
  12    4   36 1
  13    5    6 1
  14    5   28 1
  15    5   37 1
  16    6    7 1
  17    6   38 1
  18    6   39 1
  19    7    8 1
  20    8    9 ar
  21    8   10 ar
  22    9   13 ar
  23    9   40 1
  24   10   11 ar
  25   10   41 1
  26   11   12 ar
  27   11   42 1
  28   12   13 ar
  29   12   23 1
  30   13   26 1
  31   14   15 1
  32   14   31 1
  33   14   43 1
  34   15   16 1
  35   15   44 1
  36   15   45 1
  37   16   17 1
  38   17   18 ar
  39   17   22 ar
  40   18   19 ar
  41   18   46 1
  42   19   20 ar
  43   19   47 1
  44   20   21 ar
  45   20   29 1
  46   21   22 ar
  47   21   48 1
  48   22   49 1
  49   23   24 am
  50   23   50 1
  51   24   25 1
  52   24   27 2
  53   25   26 2
  54   25   51 1
  55   26   52 1
  56   28   53 1
  57   30   54 1
  58   30   55 1
  59   30   56 1
  60   31   57 1
  61   31   58 1
  62   31   59 1

#	End of record

