#	Name: ASD02038546
#	Creating user name:	WinNT
#	Creation time:	15. 06. 2019 20:16

#	Modifying user name:	WinNT
#	Modification time:	15. 06. 2019 20:16

#	Program:	/corina/corina34_cracker 3.40 0067  02.08.2006

@<TRIPOS>MOLECULE
ASD02038546
  53   56    0    0    0
SMALL
NO_CHARGES


@<TRIPOS>ATOM
   1 Cl1            7.5559     4.0290     0.2490 Cl      
   2 C2             0.6609    -0.0190     1.3142 C.3     
   3 N3             0.0020    -0.0042     0.0007 N.3     
   4 C4            -1.3592    -0.5495     0.0884 C.3     
   5 C5            -0.0095     1.3524    -0.5642 C.3     
   6 C6             1.4293     1.8526    -0.7125 C.3     
   7 N7             2.0882     1.8378     0.6010 N.3     
   8 C8             3.3831     2.3565     0.5176 C.ar    
   9 C9             4.1776     2.4305     1.6545 C.ar    
  10 C10            5.4569     2.9437     1.5692 C.ar    
  11 C11            5.9475     3.3840     0.3525 C.ar    
  12 C12            5.1582     3.3115    -0.7819 C.ar    
  13 C13            3.8801     2.7939    -0.7035 C.ar    
  14 C14            2.0998     0.4812     1.1659 C.3     
  15 C15           -1.2915    -2.0737     0.2029 C.3     
  16 C16           -2.6997    -2.6320     0.4179 C.3     
  17 O17           -2.6245    -4.0414     0.6410 O.3     
  18 O18           -0.7418    -2.6178    -0.9987 O.3     
  19 C19           -3.7971    -4.6966     0.8510 C.ar    
  20 C20           -3.7924    -6.0593     1.0727 C.ar    
  21 C21           -4.9965    -3.9890     0.8473 C.ar    
  22 C22           -6.1941    -4.6360     1.0592 C.ar    
  23 C23           -6.2124    -6.0090     1.2792 C.ar    
  24 C24           -5.0019    -6.7276     1.2886 C.ar    
  25 N25           -7.4019    -6.6757     1.4930 N.am    
  26 C26           -7.4222    -8.0031     1.7055 C.2     
  27 C27           -6.2371    -8.7693     1.7198 C.2     
  28 C28           -5.0358    -8.1728     1.5209 C.2     
  29 O29           -8.4912    -8.5588     1.8907 O.2     
  30 H30            0.1187     0.6315     2.0004 H       
  31 H31            0.6681    -1.0362     1.7060 H       
  32 H32           -1.8584    -0.1409     0.9670 H       
  33 H33           -1.9182    -0.2769    -0.8068 H       
  34 H34           -0.4911     1.3352    -1.5419 H       
  35 H35           -0.5593     2.0186     0.1007 H       
  36 H36            1.9716     1.2021    -1.3987 H       
  37 H37            1.4222     2.8698    -1.1043 H       
  38 H38            3.7951     2.0874     2.6044 H       
  39 H39            6.0750     3.0018     2.4530 H       
  40 H40            5.5434     3.6561    -1.7301 H       
  41 H41            3.2647     2.7372    -1.5891 H       
  42 H42            2.5814     0.4984     2.1436 H       
  43 H43            2.6496    -0.1849     0.5010 H       
  44 H44           -0.6595    -2.3469     1.0479 H       
  45 H45           -3.1530    -2.1507     1.2846 H       
  46 H46           -3.3072    -2.4359    -0.4656 H       
  47 H47           -1.2540    -2.4138    -1.7931 H       
  48 H48           -2.8609    -6.6058     1.0789 H       
  49 H49           -4.9877    -2.9225     0.6770 H       
  50 H50           -7.1182    -4.0772     1.0549 H       
  51 H51           -8.2352    -6.1793     1.4903 H       
  52 H52           -6.2869    -9.8340     1.8937 H       
  53 H53           -4.1241    -8.7517     1.5300 H       
@<TRIPOS>BOND
   1    1   11 1
   2    2    3 1
   3    2   14 1
   4    2   30 1
   5    2   31 1
   6    3    4 1
   7    3    5 1
   8    4   15 1
   9    4   32 1
  10    4   33 1
  11    5    6 1
  12    5   34 1
  13    5   35 1
  14    6    7 1
  15    6   36 1
  16    6   37 1
  17    7    8 1
  18    7   14 1
  19    8    9 ar
  20    8   13 ar
  21    9   10 ar
  22    9   38 1
  23   10   11 ar
  24   10   39 1
  25   11   12 ar
  26   12   13 ar
  27   12   40 1
  28   13   41 1
  29   14   42 1
  30   14   43 1
  31   15   16 1
  32   15   18 1
  33   15   44 1
  34   16   17 1
  35   16   45 1
  36   16   46 1
  37   17   19 1
  38   18   47 1
  39   19   20 ar
  40   19   21 ar
  41   20   24 ar
  42   20   48 1
  43   21   22 ar
  44   21   49 1
  45   22   23 ar
  46   22   50 1
  47   23   24 ar
  48   23   25 1
  49   24   28 1
  50   25   26 am
  51   25   51 1
  52   26   27 1
  53   26   29 2
  54   27   28 2
  55   27   52 1
  56   28   53 1

#	End of record

