#	Name: ASD03091038
#	Creating user name:	WinNT
#	Creation time:	15. 06. 2019 20:29

#	Modifying user name:	WinNT
#	Modification time:	15. 06. 2019 20:29

#	Program:	/corina/corina34_cracker 3.40 0067  02.08.2006

@<TRIPOS>MOLECULE
ASD03091038
  25   26    0    0    0
SMALL
NO_CHARGES


@<TRIPOS>ATOM
   1 C1            -0.0405     1.4281    -0.5159 C.2     
   2 C2            -0.0088    -0.0265    -0.2532 C.ar    
   3 C3             1.2131    -0.6878    -0.1184 C.ar    
   4 C4             1.2372    -2.0451     0.1266 C.ar    
   5 C5             0.0536    -2.7525     0.2392 C.ar    
   6 C6            -1.1632    -2.1033     0.1068 C.ar    
   7 C7            -1.2003    -0.7427    -0.1332 C.ar    
   8 O8             0.5266     1.8822    -1.4905 O.2     
   9 N9            -0.7028     2.2500     0.3221 N.am    
  10 N10            2.4812     0.0662    -0.2389 N.pl3   
  11 O11            3.5442    -0.5282    -0.2522 O.2     
  12 O12            2.4615     1.2810    -0.3246 O.2     
  13 F13           -2.3152    -2.8003     0.2179 F       
  14 C14           -0.7342     3.6914     0.0617 C.3     
  15 C15           -1.9090     4.4872     0.6340 C.3     
  16 C16           -0.5161     4.6290     1.2510 C.3     
  17 H17            2.1825    -2.5569     0.2305 H       
  18 H18            0.0783    -3.8151     0.4308 H       
  19 H19           -2.1489    -0.2360    -0.2320 H       
  20 H20           -1.1587     1.8872     1.0976 H       
  21 H21           -0.3382     4.0033    -0.9047 H       
  22 H22           -2.2856     5.3229     0.0442 H       
  23 H23           -2.6585     3.9384     1.2041 H       
  24 H24           -0.3493     4.1734     2.2270 H       
  25 H25            0.0236     5.5580     1.0671 H       
@<TRIPOS>BOND
   1    1    2 1
   2    1    8 2
   3    1    9 am
   4    2    3 ar
   5    2    7 ar
   6    3    4 ar
   7    3   10 1
   8    4    5 ar
   9    4   17 1
  10    5    6 ar
  11    5   18 1
  12    6    7 ar
  13    6   13 1
  14    7   19 1
  15    9   14 1
  16    9   20 1
  17   10   11 2
  18   10   12 2
  19   14   15 1
  20   14   16 1
  21   14   21 1
  22   15   16 1
  23   15   22 1
  24   15   23 1
  25   16   24 1
  26   16   25 1

#	End of record

