#	Name: ASD01208642
#	Creating user name:	WinNT
#	Creation time:	15. 06. 2019 19:10

#	Modifying user name:	WinNT
#	Modification time:	15. 06. 2019 19:10

#	Program:	/corina/corina34_cracker 3.40 0067  02.08.2006

@<TRIPOS>MOLECULE
ASD01208642
  18   18    0    0    0
SMALL
NO_CHARGES


@<TRIPOS>ATOM
   1 C1            -0.0168     1.3896     0.0097 C.ar    
   2 C2             0.0021    -0.0041     0.0020 C.ar    
   3 C3             1.2210    -0.6608    -0.0132 C.ar    
   4 C4             2.3830     0.1001    -0.0202 C.ar    
   5 C5             2.2882     1.4856    -0.0119 C.ar    
   6 N6             1.1163     2.0811     0.0026 N.ar    
   7 C7            -1.3128     2.1054     0.0197 C.2     
   8 O8            -2.3535     1.4779     0.0212 O.2     
   9 N9            -1.3383     3.4529     0.0271 N.am    
  10 C10           -2.6206     4.1612     0.0371 C.3     
  11 F11            3.5927    -0.5013    -0.0346 F       
  12 H12           -0.9214    -0.5641     0.0082 H       
  13 H13            1.2671    -1.7398    -0.0191 H       
  14 H14            3.1888     2.0815    -0.0170 H       
  15 H15           -0.5076     3.9537     0.0259 H       
  16 H16           -3.1913     3.8919    -0.8517 H       
  17 H17           -3.1829     3.8823     0.9282 H       
  18 H18           -2.4418     5.2364     0.0421 H       
@<TRIPOS>BOND
   1    1    2 ar
   2    1    6 ar
   3    1    7 1
   4    2    3 ar
   5    2   12 1
   6    3    4 ar
   7    3   13 1
   8    4    5 ar
   9    4   11 1
  10    5    6 ar
  11    5   14 1
  12    7    8 2
  13    7    9 am
  14    9   10 1
  15    9   15 1
  16   10   16 1
  17   10   17 1
  18   10   18 1

#	End of record

