#	Name: ASD01148349
#	Creating user name:	WinNT
#	Creation time:	15. 06. 2019 19:02

#	Modifying user name:	WinNT
#	Modification time:	15. 06. 2019 19:02

#	Program:	/corina/corina34_cracker 3.40 0067  02.08.2006

@<TRIPOS>MOLECULE
ASD01148349
  49   52    0    0    0
SMALL
NO_CHARGES


@<TRIPOS>ATOM
   1 C1            -0.4099     1.8298    -0.0439 C.ar    
   2 C2            -0.4708     0.4506     0.0159 C.ar    
   3 C3             0.6951    -0.2905     0.0952 C.ar    
   4 C4             1.9210     0.3500     0.1143 C.ar    
   5 C5             1.9807     1.7298     0.0544 C.ar    
   6 C6             0.8158     2.4694    -0.0248 C.ar    
   7 C7             3.3162     2.4276     0.0753 C.3     
   8 O8             4.3314     1.6182    -0.5523 O.3     
   9 C9             3.3021     3.6779    -0.8363 C.3     
  10 C10            3.8441     3.1372    -2.1458 C.2     
  11 N11            4.3963     1.9937    -1.9138 N.2     
  12 C12            3.7550     3.8039    -3.4598 C.ar    
  13 C13            4.2992     3.1921    -4.5922 C.ar    
  14 C14            3.1216     5.0440    -3.5724 C.ar    
  15 C15            3.0387     5.6657    -4.7980 C.ar    
  16 C16            3.5873     5.0565    -5.9288 C.ar    
  17 C17            4.2161     3.8139    -5.8172 C.ar    
  18 C18            3.4973     5.7236    -7.2445 C.2     
  19 O19            4.0694     5.2497    -8.2067 O.2     
  20 N20            2.7808     6.8574    -7.3777 N.am    
  21 C21            4.8084     3.1570    -7.0373 C.3     
  22 C22            3.7161     2.7961     1.5054 C.3     
  23 F23            3.7877     1.6355     2.2833 F       
  24 F24            4.9648     3.4268     1.4927 F       
  25 F25            2.7614     3.6630     2.0479 F       
  26 Cl26           0.6193    -2.0231     0.1710 Cl      
  27 C27            2.6916     7.5186    -8.6819 C.3     
  28 C28            1.8389     8.7553    -8.5608 C.2     
  29 C29            2.3537     9.9710    -8.3541 C.2     
  30 S30            1.0192    11.1190    -8.2769 S.3     
  31 C31           -0.0983     9.8500    -8.5303 C.2     
  32 N32            0.5248     8.7271    -8.6557 N.2     
  33 H33           -1.3196     2.4081    -0.1103 H       
  34 H34           -1.4283    -0.0489     0.0013 H       
  35 H35            2.8313    -0.2278     0.1765 H       
  36 H36            0.8629     3.5474    -0.0716 H       
  37 H37            2.2865     4.0528    -0.9632 H       
  38 H38            3.9554     4.4544    -0.4383 H       
  39 H39            4.7853     2.2315    -4.5060 H       
  40 H40            2.6968     5.5148    -2.6982 H       
  41 H41            2.5490     6.6244    -4.8851 H       
  42 H42            2.3243     7.2356    -6.6099 H       
  43 H43            5.8049     3.5597    -7.2192 H       
  44 H44            4.8754     2.0813    -6.8744 H       
  45 H45            4.1734     3.3548    -7.9009 H       
  46 H46            3.6906     7.7976    -9.0169 H       
  47 H47            2.2430     6.8373    -9.4048 H       
  48 H48            3.4024    10.2081    -8.2523 H       
  49 H49           -1.1701     9.9715    -8.5825 H       
@<TRIPOS>BOND
   1    1    2 ar
   2    1    6 ar
   3    1   33 1
   4    2    3 ar
   5    2   34 1
   6    3    4 ar
   7    3   26 1
   8    4    5 ar
   9    4   35 1
  10    5    6 ar
  11    5    7 1
  12    6   36 1
  13    7    8 1
  14    7    9 1
  15    7   22 1
  16    8   11 1
  17    9   10 1
  18    9   37 1
  19    9   38 1
  20   10   11 2
  21   10   12 1
  22   12   13 ar
  23   12   14 ar
  24   13   17 ar
  25   13   39 1
  26   14   15 ar
  27   14   40 1
  28   15   16 ar
  29   15   41 1
  30   16   17 ar
  31   16   18 1
  32   17   21 1
  33   18   19 2
  34   18   20 am
  35   20   27 1
  36   20   42 1
  37   21   43 1
  38   21   44 1
  39   21   45 1
  40   22   23 1
  41   22   24 1
  42   22   25 1
  43   27   28 1
  44   27   46 1
  45   27   47 1
  46   28   29 2
  47   28   32 1
  48   29   30 1
  49   29   48 1
  50   30   31 1
  51   31   32 2
  52   31   49 1

#	End of record

