#	Name: ASD09740588
#	Creating user name:	WinNT
#	Creation time:	15. 06. 2019 21:23

#	Modifying user name:	WinNT
#	Modification time:	15. 06. 2019 21:23

#	Program:	/corina/corina34_cracker 3.40 0067  02.08.2006

@<TRIPOS>MOLECULE
ASD09740588
  70   74    0    0    0
SMALL
NO_CHARGES


@<TRIPOS>ATOM
   1 N1            -1.1509     0.6780    -0.3594 N.2     
   2 C2            -1.0221    -0.5927    -0.0690 C.2     
   3 C3            -0.1805     1.4720    -0.0027 C.2     
   4 S4             1.0716     0.5320     0.8046 S.3     
   5 C5             0.1167    -0.9314     0.5740 C.2     
   6 C6            -0.1373     2.9299    -0.2390 C.ar    
   7 C7            -1.1933     3.5613    -0.8917 C.ar    
   8 C8             0.9611     3.6766     0.1978 C.ar    
   9 C9             1.0064     5.0368    -0.0195 C.ar    
  10 C10           -0.0378     5.6755    -0.6729 C.ar    
  11 C11           -1.1474     4.9369    -1.1114 C.ar    
  12 O12            0.0117     7.0148    -0.8834 O.3     
  13 C13            1.2194     7.6849    -0.5167 C.3     
  14 C14            1.3637     8.9645    -1.3430 C.3     
  15 C15            1.1738     8.0407     0.9707 C.3     
  16 C16           -2.2263     5.5933    -1.7864 C.1     
  17 N17           -3.0822     6.1141    -2.3219 N.1     
  18 C18            0.4958    -2.2922     1.0086 C.ar    
  19 C19            1.7578    -2.8024     0.6904 C.ar    
  20 C20            2.1055    -4.0735     1.0989 C.ar    
  21 C21            1.2038    -4.8385     1.8224 C.ar    
  22 C22           -0.0457    -4.3386     2.1394 C.ar    
  23 C23           -0.4033    -3.0671     1.7418 C.ar    
  24 C24            2.9035    -2.1783    -0.0768 C.3     
  25 C25            4.1400    -3.0300     0.2812 C.3     
  26 C26            3.5104    -4.3941     0.6347 C.3     
  27 N27            3.4703    -5.2573    -0.5483 N.am    
  28 S28            4.3403    -6.6662    -0.5751 S.o2    
  29 O29            4.0436    -7.2372    -1.8420 O.2     
  30 O30            5.6631    -6.2676    -0.2428 O.2     
  31 C31            3.6231    -7.6664     0.7575 C.3     
  32 C32            4.2583    -9.0583     0.7489 C.3     
  33 N33            3.6775    -9.8683     1.8281 N.3     
  34 C34            2.2734   -10.2099     1.5352 C.3     
  35 C35            2.1605   -11.7486     1.5699 C.3     
  36 C36            3.3758   -12.1688     2.4379 C.3     
  37 C37            4.4376   -11.1222     2.0171 C.3     
  38 O38            3.8045   -13.4924     2.1119 O.3     
  39 H39           -1.7766    -1.3214    -0.3263 H       
  40 H40           -2.0445     2.9870    -1.2266 H       
  41 H41            1.7769     3.1857     0.7076 H       
  42 H42            1.8577     5.6078     0.3204 H       
  43 H43            2.0702     7.0310    -0.7079 H       
  44 H44            0.5129     9.6184    -1.1517 H       
  45 H45            2.2849     9.4756    -1.0632 H       
  46 H46            1.3962     8.7110    -2.4026 H       
  47 H47            0.3230     8.6946     1.1619 H       
  48 H48            1.0710     7.1291     1.5593 H       
  49 H49            2.0950     8.5518     1.2504 H       
  50 H50            1.4794    -5.8330     2.1407 H       
  51 H51           -0.7411    -4.9428     2.7031 H       
  52 H52           -1.3791    -2.6762     1.9895 H       
  53 H53            2.7103    -2.2237    -1.1486 H       
  54 H54            3.0515    -1.1454     0.2383 H       
  55 H55            4.8084    -3.1218    -0.5750 H       
  56 H56            4.6640    -2.6107     1.1401 H       
  57 H57            4.0730    -4.8742     1.4353 H       
  58 H58            2.9342    -5.0037    -1.3159 H       
  59 H59            3.8152    -7.1853     1.7166 H       
  60 H60            2.5476    -7.7569     0.6054 H       
  61 H61            4.0662    -9.5394    -0.2102 H       
  62 H62            5.3338    -8.9678     0.9010 H       
  63 H63            1.6202    -9.7731     2.2906 H       
  64 H64            2.0002    -9.8402     0.5469 H       
  65 H65            1.2264   -12.0560     2.0400 H       
  66 H66            2.2425   -12.1637     0.5653 H       
  67 H67            3.1446   -12.0853     3.4998 H       
  68 H68            4.9156   -11.4206     1.0841 H       
  69 H69            5.1821   -10.9997     2.8037 H       
  70 H70            3.1348   -14.1723     2.2678 H       
@<TRIPOS>BOND
   1    1    2 1
   2    1    3 2
   3    2    5 2
   4    2   39 1
   5    3    4 1
   6    3    6 1
   7    4    5 1
   8    5   18 1
   9    6    7 ar
  10    6    8 ar
  11    7   11 ar
  12    7   40 1
  13    8    9 ar
  14    8   41 1
  15    9   10 ar
  16    9   42 1
  17   10   11 ar
  18   10   12 1
  19   11   16 1
  20   12   13 1
  21   13   14 1
  22   13   15 1
  23   13   43 1
  24   14   44 1
  25   14   45 1
  26   14   46 1
  27   15   47 1
  28   15   48 1
  29   15   49 1
  30   16   17 3
  31   18   19 ar
  32   18   23 ar
  33   19   20 ar
  34   19   24 1
  35   20   21 ar
  36   20   26 1
  37   21   22 ar
  38   21   50 1
  39   22   23 ar
  40   22   51 1
  41   23   52 1
  42   24   25 1
  43   24   53 1
  44   24   54 1
  45   25   26 1
  46   25   55 1
  47   25   56 1
  48   26   27 1
  49   26   57 1
  50   27   28 am
  51   27   58 1
  52   28   29 2
  53   28   30 2
  54   28   31 1
  55   31   32 1
  56   31   59 1
  57   31   60 1
  58   32   33 1
  59   32   61 1
  60   32   62 1
  61   33   34 1
  62   33   37 1
  63   34   35 1
  64   34   63 1
  65   34   64 1
  66   35   36 1
  67   35   65 1
  68   35   66 1
  69   36   37 1
  70   36   38 1
  71   36   67 1
  72   37   68 1
  73   37   69 1
  74   38   70 1

#	End of record

