#	Name: ASD03091284
#	Creating user name:	WinNT
#	Creation time:	15. 06. 2019 20:30

#	Modifying user name:	WinNT
#	Modification time:	15. 06. 2019 20:30

#	Program:	/corina/corina34_cracker 3.40 0067  02.08.2006

@<TRIPOS>MOLECULE
ASD03091284
  60   65    0    0    0
SMALL
NO_CHARGES


@<TRIPOS>ATOM
   1 N1             0.0433     1.2610     0.4223 N.2     
   2 C2             0.0237    -0.0212     0.1710 C.2     
   3 N3             1.1306    -0.7222    -0.2253 N.am    
   4 C4             2.3206    -0.0950    -0.3759 C.2     
   5 C5             2.3660     1.3488    -0.0989 C.ar    
   6 C6             3.5421     2.0835    -0.2253 C.ar    
   7 C7             3.5273     3.4413     0.0481 C.ar    
   8 C8             2.3466     4.0686     0.4463 C.ar    
   9 C9             1.1862     3.3613     0.5751 C.ar    
  10 C10            1.1721     1.9891     0.3056 C.ar    
  11 O11            3.3152    -0.7027    -0.7268 O.2     
  12 C12           -1.2552    -0.7497     0.3225 C.ar    
  13 C13           -2.4334    -0.0390     0.5487 C.ar    
  14 C14           -3.6224    -0.7350     0.6879 C.ar    
  15 C15           -3.5940    -2.1189     0.5963 C.ar    
  16 C16           -2.3882    -2.7601     0.3702 C.ar    
  17 N17           -1.2726    -2.0746     0.2365 N.ar    
  18 C18           -2.3531    -4.2634     0.2706 C.3     
  19 C19            1.0268    -2.1598    -0.4876 C.3     
  20 C20            0.1487    -2.5025    -1.7027 C.3     
  21 C21            1.1888    -3.5803    -2.0513 C.3     
  22 C22            2.2133    -2.7280    -1.2840 C.3     
  23 N23            7.1847     5.1627    -1.3619 N.3     
  24 C24            7.1639     4.0672    -0.3806 C.3     
  25 C25            5.8368     3.3264    -0.4305 C.3     
  26 N26            4.7021     4.1871    -0.0754 N.3     
  27 C27            4.5408     5.2646    -1.0617 C.3     
  28 C28            5.2672     6.5194    -0.6008 C.3     
  29 C29            6.7746     6.4200    -0.7203 C.3     
  30 C30            6.4963     4.9168    -2.6109 C.3     
  31 C31            4.9957     4.7669    -2.4214 C.3     
  32 H32            4.4571     1.5993    -0.5332 H       
  33 H33            2.3507     5.1280     0.6560 H       
  34 H34            0.2801     3.8607     0.8850 H       
  35 H35           -2.4188     1.0389     0.6147 H       
  36 H36           -4.5508    -0.2122     0.8641 H       
  37 H37           -4.5042    -2.6908     0.7007 H       
  38 H38           -2.5009    -4.5623    -0.7672 H       
  39 H39           -1.3871    -4.6282     0.6197 H       
  40 H40           -3.1459    -4.6870     0.8871 H       
  41 H41            0.7819    -2.7362     0.4045 H       
  42 H42           -0.8273    -2.9077    -1.4357 H       
  43 H43            0.0882    -1.7000    -2.4379 H       
  44 H44            0.9891    -4.5460    -1.5870 H       
  45 H45            1.3967    -3.6574    -3.1185 H       
  46 H46            2.7173    -1.9872    -1.9048 H       
  47 H47            2.9041    -3.3152    -0.6790 H       
  48 H48            7.9725     3.3708    -0.6026 H       
  49 H49            7.3087     4.4776     0.6188 H       
  50 H50            5.6854     2.9408    -1.4387 H       
  51 H51            5.8745     2.4874     0.2644 H       
  52 H52            3.4784     5.4967    -1.1366 H       
  53 H53            4.9239     7.3622    -1.2006 H       
  54 H54            5.0110     6.7085     0.4417 H       
  55 H55            7.2147     6.4714     0.2756 H       
  56 H56            7.1405     7.2581    -1.3134 H       
  57 H57            6.6857     5.7491    -3.2887 H       
  58 H58            6.8892     4.0032    -3.0572 H       
  59 H59            4.7294     3.7147    -2.5209 H       
  60 H60            4.4822     5.3355    -3.1968 H       
@<TRIPOS>BOND
   1    1    2 2
   2    1   10 1
   3    2    3 1
   4    2   12 1
   5    3    4 am
   6    3   19 1
   7    4    5 1
   8    4   11 2
   9    5    6 ar
  10    5   10 ar
  11    6    7 ar
  12    6   32 1
  13    7    8 ar
  14    7   26 1
  15    8    9 ar
  16    8   33 1
  17    9   10 ar
  18    9   34 1
  19   12   13 ar
  20   12   17 ar
  21   13   14 ar
  22   13   35 1
  23   14   15 ar
  24   14   36 1
  25   15   16 ar
  26   15   37 1
  27   16   17 ar
  28   16   18 1
  29   18   38 1
  30   18   39 1
  31   18   40 1
  32   19   20 1
  33   19   22 1
  34   19   41 1
  35   20   21 1
  36   20   42 1
  37   20   43 1
  38   21   22 1
  39   21   44 1
  40   21   45 1
  41   22   46 1
  42   22   47 1
  43   23   24 1
  44   23   29 1
  45   23   30 1
  46   24   25 1
  47   24   48 1
  48   24   49 1
  49   25   26 1
  50   25   50 1
  51   25   51 1
  52   26   27 1
  53   27   28 1
  54   27   31 1
  55   27   52 1
  56   28   29 1
  57   28   53 1
  58   28   54 1
  59   29   55 1
  60   29   56 1
  61   30   31 1
  62   30   57 1
  63   30   58 1
  64   31   59 1
  65   31   60 1

#	End of record

