#	Name: ASD01912805
#	Creating user name:	WinNT
#	Creation time:	15. 06. 2019 20:00

#	Modifying user name:	WinNT
#	Modification time:	15. 06. 2019 20:00

#	Program:	/corina/corina34_cracker 3.40 0067  02.08.2006

@<TRIPOS>MOLECULE
ASD01912805
  40   43    0    0    0
SMALL
NO_CHARGES


@<TRIPOS>ATOM
   1 C1            -0.0189     1.3591     0.1441 C.2     
   2 N2             0.0023    -0.0034    -0.0078 N.pl3   
   3 C3            -1.1996    -0.6833    -0.1381 C.2     
   4 C4            -2.3604    -0.0413    -0.1182 C.2     
   5 N5            -2.4358     1.3308     0.0325 N.am    
   6 C6            -1.3047     2.0581     0.1702 C.2     
   7 C7             1.2971     1.7691     0.2492 C.2     
   8 C8             2.0521     0.6014     0.1521 C.2     
   9 N9             1.2242    -0.4052     0.0019 N.2     
  10 O10           -1.3539     3.2675     0.3042 O.2     
  11 C11           -3.6793     1.9642     0.0473 C.ar    
  12 C12            3.5553     0.5111     0.2094 C.3     
  13 O13            4.1049     1.8190     0.3809 O.3     
  14 C14            5.4564     1.9148     0.4523 C.ar    
  15 C15            6.0499     3.1593     0.6186 C.ar    
  16 C16            7.4297     3.2433     0.6900 C.ar    
  17 C17            8.1700     2.0735     0.5919 C.ar    
  18 C18            7.5130     0.8701     0.4273 C.ar    
  19 N19            6.1959     0.8213     0.3682 N.ar    
  20 N20           -4.3038     2.1756     1.1962 N.ar    
  21 C21           -4.2678     2.3831    -1.1503 C.ar    
  22 N22           -5.4469     2.9835    -1.1283 N.ar    
  23 C23           -6.0653     3.1857     0.0244 C.ar    
  24 C24           -5.4823     2.7767     1.2073 C.ar    
  25 O25           -3.6316     2.1751    -2.3309 O.3     
  26 C26           -4.2930     2.6298    -3.5132 C.3     
  27 H27           -1.1902    -1.7565    -0.2585 H       
  28 H28           -3.2739    -0.6077    -0.2231 H       
  29 H29            1.6618     2.7774     0.3784 H       
  30 H30            3.8497    -0.1195     1.0483 H       
  31 H31            3.9290     0.0788    -0.7188 H       
  32 H32            5.4430     4.0497     0.6909 H       
  33 H33            7.9190     4.1974     0.8187 H       
  34 H34            9.2483     2.1041     0.6434 H       
  35 H35            8.0844    -0.0431     0.3501 H       
  36 H36           -7.0276     3.6758     0.0400 H       
  37 H37           -5.9921     2.9442     2.1446 H       
  38 H38           -5.2559     2.1275    -3.6068 H       
  39 H39           -4.4496     3.7067    -3.4506 H       
  40 H40           -3.6782     2.4020    -4.3839 H       
@<TRIPOS>BOND
   1    1    2 1
   2    1    7 2
   3    1    6 1
   4    2    3 1
   5    2    9 1
   6    3    4 2
   7    3   27 1
   8    4    5 1
   9    4   28 1
  10    5    6 am
  11    5   11 1
  12    6   10 2
  13    7    8 1
  14    7   29 1
  15    8    9 2
  16    8   12 1
  17   11   21 ar
  18   11   20 ar
  19   12   13 1
  20   12   30 1
  21   12   31 1
  22   13   14 1
  23   14   15 ar
  24   14   19 ar
  25   15   16 ar
  26   15   32 1
  27   16   17 ar
  28   16   33 1
  29   17   18 ar
  30   17   34 1
  31   18   19 ar
  32   18   35 1
  33   20   24 ar
  34   21   22 ar
  35   21   25 1
  36   22   23 ar
  37   23   24 ar
  38   23   36 1
  39   24   37 1
  40   25   26 1
  41   26   38 1
  42   26   39 1
  43   26   40 1

#	End of record

