#	Name: ASD01810537
#	Creating user name:	WinNT
#	Creation time:	15. 06. 2019 19:24

#	Modifying user name:	WinNT
#	Modification time:	15. 06. 2019 19:24

#	Program:	/corina/corina34_cracker 3.40 0067  02.08.2006

@<TRIPOS>MOLECULE
ASD01810537
  55   57    0    0    0
SMALL
NO_CHARGES


@<TRIPOS>ATOM
   1 C1            -0.0167     1.3798     0.0096 C.ar    
   2 C2             0.0021    -0.0041     0.0020 C.ar    
   3 C3             1.2044    -0.6844    -0.0132 C.ar    
   4 C4             2.3969     0.0223    -0.0208 C.ar    
   5 C5             2.3780     1.4188    -0.0131 C.ar    
   6 C6             1.1667     2.0926     0.0022 C.ar    
   7 N7             3.7356    -0.3620    -0.0357 N.am    
   8 C8             4.4959     0.7492    -0.0370 C.2     
   9 N9             3.7058     1.8393    -0.0236 N.am    
  10 C10            4.2319    -1.7403    -0.0471 C.3     
  11 O11            5.7126     0.7658    -0.0490 O.2     
  12 C12            5.0719    -1.9713    -1.3063 C.3     
  13 C13            5.6375    -3.3932    -1.2826 C.3     
  14 N14            6.4634    -3.5728    -0.0817 N.3     
  15 C15            5.6675    -3.4025     1.1405 C.3     
  16 C16            5.1028    -1.9809     1.1891 C.3     
  17 C17            7.1346    -4.8794    -0.0950 C.3     
  18 C18            8.1697    -4.9326     1.0304 C.3     
  19 C19            8.8688    -6.2935     1.0165 C.3     
  20 C20            9.9039    -6.3466     2.1419 C.3     
  21 C21           10.6029    -7.7075     2.1281 C.3     
  22 C22           11.6381    -7.7606     3.2535 C.3     
  23 C23           12.3371    -9.1215     3.2396 C.3     
  24 C24           13.3722    -9.1746     4.3651 C.3     
  25 H25           -0.9605     1.9046     0.0170 H       
  26 H26           -0.9271    -0.5545     0.0083 H       
  27 H27            1.2151    -1.7643    -0.0187 H       
  28 H28            1.1480     3.1724     0.0078 H       
  29 H29            4.0095     2.7605    -0.0222 H       
  30 H30            3.3888    -2.4311    -0.0399 H       
  31 H31            4.4463    -1.8432    -2.1897 H       
  32 H32            5.8920    -1.2539    -1.3333 H       
  33 H33            4.8168    -4.1103    -1.2695 H       
  34 H34            6.2479    -3.5561    -2.1708 H       
  35 H35            4.8466    -4.1196     1.1422 H       
  36 H36            6.2996    -3.5721     2.0121 H       
  37 H37            5.9234    -1.2636     1.2014 H       
  38 H38            4.4992    -1.8597     2.0886 H       
  39 H39            6.3969    -5.6683     0.0522 H       
  40 H40            7.6328    -5.0222    -1.0540 H       
  41 H41            8.9073    -4.1437     0.8831 H       
  42 H42            7.6715    -4.7898     1.9893 H       
  43 H43            8.1311    -7.0823     1.1638 H       
  44 H44            9.3669    -6.4363     0.0576 H       
  45 H45           10.6415    -5.5577     1.9947 H       
  46 H46            9.4057    -6.2038     3.1009 H       
  47 H47            9.8653    -8.4964     2.2753 H       
  48 H48           11.1011    -7.8503     1.1692 H       
  49 H49           12.3757    -6.9717     3.1062 H       
  50 H50           11.1399    -7.6178     4.2124 H       
  51 H51           11.5995    -9.9104     3.3869 H       
  52 H52           12.8353    -9.2643     2.2807 H       
  53 H53           13.8703   -10.1442     4.3552 H       
  54 H54           14.1099    -8.3858     4.2178 H       
  55 H55           12.8740    -9.0318     5.3240 H       
@<TRIPOS>BOND
   1    1    2 ar
   2    1    6 ar
   3    1   25 1
   4    2    3 ar
   5    2   26 1
   6    3    4 ar
   7    3   27 1
   8    4    5 ar
   9    4    7 1
  10    5    6 ar
  11    5    9 1
  12    6   28 1
  13    7    8 am
  14    7   10 1
  15    8    9 am
  16    8   11 2
  17    9   29 1
  18   10   12 1
  19   10   16 1
  20   10   30 1
  21   12   13 1
  22   12   31 1
  23   12   32 1
  24   13   14 1
  25   13   33 1
  26   13   34 1
  27   14   17 1
  28   14   15 1
  29   15   16 1
  30   15   35 1
  31   15   36 1
  32   16   37 1
  33   16   38 1
  34   17   18 1
  35   17   39 1
  36   17   40 1
  37   18   19 1
  38   18   41 1
  39   18   42 1
  40   19   20 1
  41   19   43 1
  42   19   44 1
  43   20   21 1
  44   20   45 1
  45   20   46 1
  46   21   22 1
  47   21   47 1
  48   21   48 1
  49   22   23 1
  50   22   49 1
  51   22   50 1
  52   23   24 1
  53   23   51 1
  54   23   52 1
  55   24   53 1
  56   24   54 1
  57   24   55 1

#	End of record

