#	Name: ASD01410713
#	Creating user name:	WinNT
#	Creation time:	15. 06. 2019 19:18

#	Modifying user name:	WinNT
#	Modification time:	15. 06. 2019 19:18

#	Program:	/corina/corina34_cracker 3.40 0067  02.08.2006

@<TRIPOS>MOLECULE
ASD01410713
  62   65    0    0    0
SMALL
NO_CHARGES


@<TRIPOS>ATOM
   1 N1            -0.0089     3.2698    -0.5397 N.am    
   2 C2             0.6815     2.5385     0.3540 C.2     
   3 N3             1.9011     2.0532     0.0563 N.am    
   4 C4             2.4529     2.2943    -1.1502 C.2     
   5 C5             1.7379     3.0622    -2.1004 C.2     
   6 C6             0.5160     3.5372    -1.7760 C.2     
   7 O7             0.1971     2.3132     1.4462 O.2     
   8 O8             3.5566     1.8557    -1.4197 O.2     
   9 C9            -1.2800     3.7576    -0.2044 C.ar    
  10 C10           -2.3432     2.8793    -0.0626 C.ar    
  11 C11           -3.6045     3.3658     0.2704 C.ar    
  12 C12           -3.7913     4.7389     0.4600 C.ar    
  13 C13           -2.7219     5.6076     0.3158 C.ar    
  14 C14           -1.4708     5.1198    -0.0092 C.ar    
  15 C15           -2.9223     7.0872     0.5200 C.3     
  16 C16           -1.5688     7.7981     0.4609 C.3     
  17 C17           -3.8343     7.6348    -0.5797 C.3     
  18 C18           -3.5672     7.3309     1.8858 C.3     
  19 O19           -5.0200     5.2201     0.7848 O.3     
  20 C20           -6.0009     5.2487    -0.2540 C.3     
  21 C21           -4.7459     2.4315     0.4230 C.ar    
  22 C22           -6.1577     0.6962    -0.4642 C.ar    
  23 C23           -5.0769     1.5789    -0.6136 C.ar    
  24 C24           -5.4777     2.4164     1.6218 C.ar    
  25 C25           -6.5267     1.5701     1.7864 C.ar    
  26 C26           -6.8928     0.6933     0.7485 C.ar    
  27 C27           -7.9738    -0.1903     0.8965 C.ar    
  28 C28           -8.3037    -1.0398    -0.1369 C.ar    
  29 C29           -7.5720    -1.0306    -1.3308 C.ar    
  30 C30           -6.5213    -0.1853    -1.4987 C.ar    
  31 N31           -9.3782    -1.9192     0.0080 N.am    
  32 S32           -9.1004    -3.5369     0.2279 S.o2    
  33 C33           -8.2052    -3.6325     1.8027 C.3     
  34 O34          -10.3982    -4.1010     0.3569 O.2     
  35 O35           -8.2494    -3.8962    -0.8520 O.2     
  36 H36            2.3854     1.5281     0.7125 H       
  37 H37            2.1640     3.2658    -3.0717 H       
  38 H38           -0.0445     4.1247    -2.4881 H       
  39 H39           -2.1935     1.8200    -0.2105 H       
  40 H40           -0.6389     5.8003    -0.1159 H       
  41 H41           -1.1093     7.6246    -0.5121 H       
  42 H42           -1.7137     8.8683     0.6086 H       
  43 H43           -0.9190     7.4080     1.2443 H       
  44 H44           -4.7986     7.1283    -0.5376 H       
  45 H45           -3.9793     8.7050    -0.4320 H       
  46 H46           -3.3749     7.4612    -1.5527 H       
  47 H47           -2.8940     6.9884     2.6718 H       
  48 H48           -3.7604     8.3962     2.0116 H       
  49 H49           -4.5067     6.7815     1.9472 H       
  50 H50           -5.5881     5.7493    -1.1298 H       
  51 H51           -6.2813     4.2287    -0.5171 H       
  52 H52           -6.8814     5.7897     0.0924 H       
  53 H53           -4.5083     1.5923    -1.5317 H       
  54 H54           -5.2024     3.0862     2.4230 H       
  55 H55           -7.0799     1.5696     2.7141 H       
  56 H56           -8.5428    -0.2043     1.8144 H       
  57 H57           -7.8463    -1.7046    -2.1289 H       
  58 H58           -5.9669    -0.1892    -2.4255 H       
  59 H59          -10.2875    -1.5827    -0.0200 H       
  60 H60           -8.7830    -3.1324     2.5800 H       
  61 H61           -8.0589    -4.6779     2.0746 H       
  62 H62           -7.2359    -3.1448     1.6999 H       
@<TRIPOS>BOND
   1    1    2 am
   2    1    6 1
   3    1    9 1
   4    2    3 am
   5    2    7 2
   6    3    4 am
   7    3   36 1
   8    4    5 1
   9    4    8 2
  10    5    6 2
  11    5   37 1
  12    6   38 1
  13    9   10 ar
  14    9   14 ar
  15   10   11 ar
  16   10   39 1
  17   11   12 ar
  18   11   21 1
  19   12   13 ar
  20   12   19 1
  21   13   14 ar
  22   13   15 1
  23   14   40 1
  24   15   16 1
  25   15   17 1
  26   15   18 1
  27   16   41 1
  28   16   42 1
  29   16   43 1
  30   17   44 1
  31   17   45 1
  32   17   46 1
  33   18   47 1
  34   18   48 1
  35   18   49 1
  36   19   20 1
  37   20   50 1
  38   20   51 1
  39   20   52 1
  40   21   24 ar
  41   21   23 ar
  42   22   23 ar
  43   22   26 ar
  44   22   30 ar
  45   23   53 1
  46   24   25 ar
  47   24   54 1
  48   25   26 ar
  49   25   55 1
  50   26   27 ar
  51   27   28 ar
  52   27   56 1
  53   28   29 ar
  54   28   31 1
  55   29   30 ar
  56   29   57 1
  57   30   58 1
  58   31   32 am
  59   31   59 1
  60   32   34 2
  61   32   33 1
  62   32   35 2
  63   33   60 1
  64   33   61 1
  65   33   62 1

#	End of record

