#	Name: ASD01815596
#	Creating user name:	WinNT
#	Creation time:	15. 06. 2019 19:33

#	Modifying user name:	WinNT
#	Modification time:	15. 06. 2019 19:33

#	Program:	/corina/corina34_cracker 3.40 0067  02.08.2006

@<TRIPOS>MOLECULE
ASD01815596
  34   36    0    0    0
SMALL
NO_CHARGES


@<TRIPOS>ATOM
   1 C1             0.1040     1.4768     0.3860 C.ar    
   2 C2             0.0849     0.0905     0.3777 C.ar    
   3 C3             1.2533    -0.6303     0.2376 C.ar    
   4 C4             2.4704     0.0349     0.1019 C.ar    
   5 C5             2.4882     1.4402     0.1100 C.ar    
   6 C6             1.2977     2.1572     0.2531 C.ar    
   7 N7             3.6447    -0.6745    -0.0383 N.pl3   
   8 C8             4.8382    -0.0824    -0.1714 C.2     
   9 C9             4.9814     1.2904    -0.1780 C.2     
  10 C10            3.7816     2.1314    -0.0344 C.2     
  11 O11            3.8551     3.3478    -0.0340 O.2     
  12 C12            6.3093     1.9024    -0.3260 C.2     
  13 O13            7.2933     1.1983    -0.4439 O.2     
  14 O14            6.4362     3.2445    -0.3310 O.3     
  15 C15            3.5837    -2.1382    -0.0413 C.3     
  16 C16            3.4395    -2.6321    -1.4578 C.ar    
  17 C17            4.5586    -2.7766    -2.2559 C.ar    
  18 C18            4.4273    -3.2303    -3.5576 C.ar    
  19 C19            3.1748    -3.5391    -4.0593 C.ar    
  20 C20            2.0548    -3.3940    -3.2591 C.ar    
  21 C21            2.1890    -2.9455    -1.9559 C.ar    
  22 F22            1.3145     3.5081     0.2605 F       
  23 F23            1.2174    -1.9809     0.2324 F       
  24 F24            0.8316    -3.6947    -3.7476 F       
  25 F25            5.5213    -3.3710    -4.3377 F       
  26 H26           -0.8195     2.0266     0.4924 H       
  27 H27           -0.8550    -0.4312     0.4825 H       
  28 H28            5.7182    -0.6995    -0.2767 H       
  29 H29            7.3297     3.6006    -0.4309 H       
  30 H30            4.4990    -2.5409     0.3925 H       
  31 H31            2.7272    -2.4674     0.5472 H       
  32 H32            5.5357    -2.5352    -1.8643 H       
  33 H33            3.0715    -3.8927    -5.0746 H       
  34 H34            1.3153    -2.8326    -1.3312 H       
@<TRIPOS>BOND
   1    1    2 ar
   2    1    6 ar
   3    1   26 1
   4    2    3 ar
   5    2   27 1
   6    3    4 ar
   7    3   23 1
   8    4    5 ar
   9    4    7 1
  10    5    6 ar
  11    5   10 1
  12    6   22 1
  13    7    8 1
  14    7   15 1
  15    8    9 2
  16    8   28 1
  17    9   10 1
  18    9   12 1
  19   10   11 2
  20   12   13 2
  21   12   14 1
  22   14   29 1
  23   15   16 1
  24   15   30 1
  25   15   31 1
  26   16   17 ar
  27   16   21 ar
  28   17   18 ar
  29   17   32 1
  30   18   19 ar
  31   18   25 1
  32   19   20 ar
  33   19   33 1
  34   20   21 ar
  35   20   24 1
  36   21   34 1

#	End of record

