#	Name: ASD05213038
#	Creating user name:	WinNT
#	Creation time:	15. 06. 2019 20:57

#	Modifying user name:	WinNT
#	Modification time:	15. 06. 2019 20:57

#	Program:	/corina/corina34_cracker 3.40 0067  02.08.2006

@<TRIPOS>MOLECULE
ASD05213038
  23   25    0    0    0
SMALL
NO_CHARGES


@<TRIPOS>ATOM
   1 S1            -0.0218     1.7577     0.0117 S.3     
   2 C2             0.0021    -0.0041     0.0020 C.2     
   3 N3            -1.0464    -0.7547     0.0080 N.2     
   4 C4            -0.8654    -2.0899    -0.0009 C.ar    
   5 C5             0.4838    -2.4559    -0.0157 C.ar    
   6 S6             1.4586    -0.9882    -0.0248 S.3     
   7 C7            -1.8378    -3.1128     0.0025 C.ar    
   8 C8            -1.4593    -4.4315    -0.0086 C.ar    
   9 C9            -0.1169    -4.7807    -0.0229 C.ar    
  10 C10            0.8496    -3.7995    -0.0264 C.ar    
  11 C11            1.7090     2.0873    -0.0030 C.2     
  12 S12            2.4091     3.6471    -0.0014 S.3     
  13 C13            4.0206     2.9356    -0.0206 C.2     
  14 C14            3.8872     1.6083    -0.0264 C.2     
  15 N15            2.6378     1.1818    -0.0112 N.2     
  16 N16            5.3016     3.6818    -0.0296 N.pl3   
  17 O17            6.3586     3.0769    -0.0433 O.2     
  18 O18            5.2969     4.8997    -0.0232 O.2     
  19 H19           -2.8867    -2.8558     0.0142 H       
  20 H20           -2.2133    -5.2046    -0.0059 H       
  21 H21            0.1703    -5.8218    -0.0308 H       
  22 H22            1.8943    -4.0730    -0.0375 H       
  23 H23            4.7330     0.9368    -0.0381 H       
@<TRIPOS>BOND
   1    1    2 1
   2    1   11 1
   3    2    3 2
   4    2    6 1
   5    3    4 1
   6    4    5 ar
   7    4    7 ar
   8    5    6 1
   9    5   10 ar
  10    7    8 ar
  11    7   19 1
  12    8    9 ar
  13    8   20 1
  14    9   10 ar
  15    9   21 1
  16   10   22 1
  17   11   12 1
  18   11   15 2
  19   12   13 1
  20   13   14 2
  21   13   16 1
  22   14   15 1
  23   14   23 1
  24   16   17 2
  25   16   18 2

#	End of record

