#	Name: ASD02030228
#	Creating user name:	WinNT
#	Creation time:	15. 06. 2019 20:14

#	Modifying user name:	WinNT
#	Modification time:	15. 06. 2019 20:14

#	Program:	/corina/corina34_cracker 3.40 0067  02.08.2006

@<TRIPOS>MOLECULE
ASD02030228
  57   60    0    0    0
SMALL
NO_CHARGES


@<TRIPOS>ATOM
   1 N1            -0.9981     2.1281    -1.3665 N.am    
   2 C2            -0.9316     0.7014    -1.7131 C.3     
   3 C3            -1.0915    -0.1226    -0.4295 C.3     
   4 N4            -2.2639     0.3741     0.3044 N.am    
   5 C5            -2.3305     1.8007     0.6510 C.3     
   6 C6            -2.1679     2.6237    -0.6277 C.3     
   7 C7            -0.0016     2.9659    -1.7152 C.2     
   8 C8             1.2199     2.4350    -2.3567 C.2     
   9 N9             2.3089     3.1197    -2.6327 N.2     
  10 N10            1.4160     1.1650    -2.7561 N.2     
  11 C11            2.6170     1.1006    -3.2720 C.2     
  12 N12            3.1634     2.3309    -3.1877 N.pl3   
  13 C13            4.4440     2.6906    -3.6291 C.ar    
  14 O14           -0.1072     4.1580    -1.5020 O.2     
  15 C15           -3.2605    -0.4637     0.6531 C.2     
  16 C16           -3.1800    -1.8968     0.2977 C.ar    
  17 O17           -4.2254    -0.0412     1.2596 O.2     
  18 C18            4.8883     3.9975    -3.4830 C.ar    
  19 C19            6.1521     4.3491    -3.9196 C.ar    
  20 C20            6.9729     3.3994    -4.5019 C.ar    
  21 C21            6.5319     2.0971    -4.6488 C.ar    
  22 C22            5.2730     1.7388    -4.2085 C.ar    
  23 C23           -3.6835     2.1103     1.2946 C.3     
  24 C24           -4.3434    -2.6152     0.0204 C.ar    
  25 Cl25           6.7093     5.9832    -3.7376 Cl      
  26 C26           -4.2635    -3.9574    -0.3121 C.ar    
  27 C27           -3.0288    -4.5875    -0.3695 C.ar    
  28 C28           -1.8695    -3.8769    -0.0945 C.ar    
  29 C29           -1.9400    -2.5329     0.2331 C.ar    
  30 O30           -5.3962    -4.6583    -0.5819 O.3     
  31 C31           -5.2406    -6.0385    -0.9178 C.3     
  32 O32           -0.6625    -4.4989    -0.1522 O.3     
  33 C33           -0.6628    -5.8844    -0.5022 C.3     
  34 H34           -1.7347     0.4559    -2.4079 H       
  35 H35            0.0323     0.4809    -2.1716 H       
  36 H36           -1.2373    -1.1723    -0.6844 H       
  37 H37           -0.2002    -0.0140     0.1884 H       
  38 H38           -1.5273     2.0463     1.3458 H       
  39 H39           -2.0223     3.6731    -0.3713 H       
  40 H40           -3.0580     2.5161    -1.2477 H       
  41 H41            3.0868     0.2210    -3.6869 H       
  42 H42            4.2473     4.7389    -3.0291 H       
  43 H43            7.9598     3.6760    -4.8427 H       
  44 H44            7.1745     1.3582    -5.1043 H       
  45 H45            4.9296     0.7213    -4.3233 H       
  46 H46           -3.7658     1.5770     2.2417 H       
  47 H47           -3.7641     3.1825     1.4732 H       
  48 H48           -4.4846     1.7918     0.6275 H       
  49 H49           -5.3049    -2.1255     0.0652 H       
  50 H50           -2.9701    -5.6343    -0.6287 H       
  51 H51           -1.0370    -1.9804     0.4471 H       
  52 H52           -6.2193    -6.4785    -1.1091 H       
  53 H53           -4.6214    -6.1277    -1.8103 H       
  54 H54           -4.7624    -6.5622    -0.0900 H       
  55 H55           -1.1042    -6.0093    -1.4909 H       
  56 H56            0.3616    -6.2569    -0.5119 H       
  57 H57           -1.2459    -6.4438     0.2293 H       
@<TRIPOS>BOND
   1    1    2 1
   2    1    7 am
   3    1    6 1
   4    2    3 1
   5    2   34 1
   6    2   35 1
   7    3    4 1
   8    3   36 1
   9    3   37 1
  10    4    5 1
  11    4   15 am
  12    5    6 1
  13    5   23 1
  14    5   38 1
  15    6   39 1
  16    6   40 1
  17    7    8 1
  18    7   14 2
  19    8    9 2
  20    8   10 1
  21    9   12 1
  22   10   11 2
  23   11   12 1
  24   11   41 1
  25   12   13 1
  26   13   18 ar
  27   13   22 ar
  28   15   16 1
  29   15   17 2
  30   16   24 ar
  31   16   29 ar
  32   18   19 ar
  33   18   42 1
  34   19   20 ar
  35   19   25 1
  36   20   21 ar
  37   20   43 1
  38   21   22 ar
  39   21   44 1
  40   22   45 1
  41   23   46 1
  42   23   47 1
  43   23   48 1
  44   24   26 ar
  45   24   49 1
  46   26   27 ar
  47   26   30 1
  48   27   28 ar
  49   27   50 1
  50   28   29 ar
  51   28   32 1
  52   29   51 1
  53   30   31 1
  54   31   52 1
  55   31   53 1
  56   31   54 1
  57   32   33 1
  58   33   55 1
  59   33   56 1
  60   33   57 1

#	End of record

