#	Name: ASD01350036
#	Creating user name:	WinNT
#	Creation time:	15. 06. 2019 19:16

#	Modifying user name:	WinNT
#	Modification time:	15. 06. 2019 19:16

#	Program:	/corina/corina34_cracker 3.40 0067  02.08.2006

@<TRIPOS>MOLECULE
ASD01350036
  40   42    0    0    0
SMALL
NO_CHARGES


@<TRIPOS>ATOM
   1 C1            -0.0167     1.3779     0.0096 C.ar    
   2 C2             0.0021    -0.0041     0.0020 C.ar    
   3 C3             1.2084    -0.6771    -0.0131 C.ar    
   4 C4             2.3998     0.0283    -0.0202 C.ar    
   5 C5             2.3810     1.4107    -0.0126 C.ar    
   6 C6             1.1710     2.0835     0.0021 C.ar    
   7 C7             3.8311    -0.4638    -0.0359 C.3     
   8 C8             4.6718     0.7530    -0.4773 C.3     
   9 C9             3.7985     1.9416    -0.0226 C.3     
  10 C10            6.0246     0.7675     0.2374 C.3     
  11 C11            6.8457    -0.4114    -0.2177 C.ar    
  12 C12            6.8415    -1.5816     0.5176 C.ar    
  13 C13            7.5949    -2.6631     0.1001 C.ar    
  14 C14            8.3519    -2.5742    -1.0529 C.ar    
  15 C15            8.3554    -1.4038    -1.7889 C.ar    
  16 C16            7.5989    -0.3242    -1.3739 C.ar    
  17 N17            3.9189     3.0554    -0.9729 N.3     
  18 C18            7.6027     0.9515    -2.1762 C.3     
  19 C19            9.1739    -3.7526    -1.5074 C.3     
  20 H20           -0.9589     1.9056     0.0170 H       
  21 H21           -0.9255    -0.5573     0.0083 H       
  22 H22            1.2222    -1.7570    -0.0191 H       
  23 H23            1.1556     3.1633     0.0076 H       
  24 H24            4.1303    -0.7888     0.9606 H       
  25 H25            3.9428    -1.2797    -0.7500 H       
  26 H26            4.8039     0.7608    -1.5592 H       
  27 H27            4.0889     2.2636     0.9774 H       
  28 H28            6.5517     1.6912    -0.0012 H       
  29 H29            5.8673     0.7066     1.3143 H       
  30 H30            6.2500    -1.6512     1.4185 H       
  31 H31            7.5922    -3.5773     0.6751 H       
  32 H32            8.9472    -1.3342    -2.6897 H       
  33 H33            3.3517     3.8388    -0.6855 H       
  34 H34            4.8830     3.3300    -1.0879 H       
  35 H35            6.8084     0.9142    -2.9218 H       
  36 H36            7.4374     1.7993    -1.5114 H       
  37 H37            8.5650     1.0637    -2.6757 H       
  38 H38            8.5749    -4.3806    -2.1669 H       
  39 H39           10.0532    -3.3969    -2.0443 H       
  40 H40            9.4880    -4.3328    -0.6397 H       
@<TRIPOS>BOND
   1    1    2 ar
   2    1    6 ar
   3    1   20 1
   4    2    3 ar
   5    2   21 1
   6    3    4 ar
   7    3   22 1
   8    4    5 ar
   9    4    7 1
  10    5    6 ar
  11    5    9 1
  12    6   23 1
  13    7    8 1
  14    7   24 1
  15    7   25 1
  16    8    9 1
  17    8   10 1
  18    8   26 1
  19    9   17 1
  20    9   27 1
  21   10   11 1
  22   10   28 1
  23   10   29 1
  24   11   12 ar
  25   11   16 ar
  26   12   13 ar
  27   12   30 1
  28   13   14 ar
  29   13   31 1
  30   14   15 ar
  31   14   19 1
  32   15   16 ar
  33   15   32 1
  34   16   18 1
  35   17   33 1
  36   17   34 1
  37   18   35 1
  38   18   36 1
  39   18   37 1
  40   19   38 1
  41   19   39 1
  42   19   40 1

#	End of record

