#	Name: ASD05792004
#	Creating user name:	WinNT
#	Creation time:	15. 06. 2019 21:03

#	Modifying user name:	WinNT
#	Modification time:	15. 06. 2019 21:03

#	Program:	/corina/corina34_cracker 3.40 0067  02.08.2006

@<TRIPOS>MOLECULE
ASD05792004
  75   78    0    0    0
SMALL
NO_CHARGES


@<TRIPOS>ATOM
   1 C1             0.0044     1.6263     0.0512 C.3     
   2 C2            -0.0270     0.0972     0.0758 C.3     
   3 C3             0.5645    -0.4464    -1.2282 C.3     
   4 C4             1.9555     0.1392    -1.4046 C.2     
   5 C5             2.1087     1.6272    -1.2949 C.3     
   6 C6             1.4547     2.1115     0.0024 C.3     
   7 C7             2.9407    -0.6754    -1.6450 C.2     
   8 C8             4.3569    -0.2139    -1.8294 C.3     
   9 C9             4.3542     1.2303    -2.3427 C.3     
  10 C10            3.5550     2.0894    -1.3532 C.3     
  11 C11            5.7759     1.7620    -2.3674 C.3     
  12 C12            5.7170     3.2091    -2.9255 C.3     
  13 C13            5.0553     4.0687    -1.8652 C.3     
  14 C14            3.6092     3.5708    -1.7164 C.3     
  15 C15            6.7244     1.0835    -3.3619 C.3     
  16 C16            7.8246     2.1576    -3.5807 C.3     
  17 C17            7.1762     3.5227    -3.2405 C.3     
  18 H18            3.9023     1.2772    -3.3335 H       
  19 O19           -1.3779    -0.3495     0.2087 O.3     
  20 C20            7.2683     4.4671    -4.4407 C.3     
  21 C21            8.7388     4.7172    -4.7813 C.3     
  22 C22            8.8337     5.7570    -5.8996 C.3     
  23 C23           10.3042     6.0071    -6.2401 C.3     
  24 C24           10.3990     7.0470    -7.3584 C.3     
  25 C25           11.8683     7.3892    -7.6133 C.3     
  26 C26            9.7784     6.4794    -8.6365 C.3     
  27 H27            6.2033     1.7457    -1.3648 H       
  28 C28            6.5913     5.7955    -4.0975 C.3     
  29 O29            6.6132     3.8749    -5.5642 O.3     
  30 C30            1.3689     2.2707    -2.4694 C.3     
  31 H31            3.9936     1.9708    -0.3625 H       
  32 H32            7.6632     3.9661    -2.3719 H       
  33 C33            4.8855     3.2371    -4.2096 C.3     
  34 H34           -0.5282     1.9858    -0.8293 H       
  35 H35           -0.4775     2.0134     0.9489 H       
  36 H36            0.5602    -0.2648     0.9198 H       
  37 H37            0.6276    -1.5334    -1.1775 H       
  38 H38           -0.0662    -0.1536    -2.0675 H       
  39 H39            1.4749     3.2009     0.0352 H       
  40 H40            2.0010     1.7114     0.8565 H       
  41 H41            2.7300    -1.7323    -1.7148 H       
  42 H42            4.8820    -0.2602    -0.8753 H       
  43 H43            4.8580    -0.8566    -2.5532 H       
  44 H44            5.5840     3.9626    -0.9180 H       
  45 H45            5.0582     5.1127    -2.1784 H       
  46 H46            3.0816     3.7254    -2.6576 H       
  47 H47            3.1140     4.1465    -0.9344 H       
  48 H48            7.1503     0.1771    -2.9316 H       
  49 H49            6.2094     0.8628    -4.2968 H       
  50 H50            8.6689     1.9689    -2.9177 H       
  51 H51            8.1547     2.1488    -4.6195 H       
  52 H52           -1.4736    -1.3115     0.2313 H       
  53 H53            9.2589     5.0859    -3.8972 H       
  54 H54            9.1988     3.7857    -5.1113 H       
  55 H55            8.3136     5.3883    -6.7837 H       
  56 H56            8.3737     6.6885    -5.5695 H       
  57 H57           10.8243     6.3758    -5.3560 H       
  58 H58           10.7642     5.0756    -6.5702 H       
  59 H59            9.8620     7.9483    -7.0629 H       
  60 H60           12.4053     6.4879    -7.9088 H       
  61 H61           11.9359     8.1300    -8.4100 H       
  62 H62           12.3104     7.7935    -6.7028 H       
  63 H63           10.3154     5.5781    -8.9320 H       
  64 H64            8.7316     6.2356    -8.4549 H       
  65 H65            9.8459     7.2203    -9.4332 H       
  66 H66            7.0910     6.2473    -3.2406 H       
  67 H67            6.6569     6.4684    -4.9526 H       
  68 H68            5.5437     5.6174    -3.8549 H       
  69 H69            6.9907     3.0278    -5.8380 H       
  70 H70            0.3471     1.8929    -2.5061 H       
  71 H71            1.3517     3.3527    -2.3390 H       
  72 H72            1.8808     2.0249    -3.3998 H       
  73 H73            3.8739     2.8926    -3.9949 H       
  74 H74            4.8481     4.2555    -4.5961 H       
  75 H75            5.3421     2.5830    -4.9524 H       
@<TRIPOS>BOND
   1    1    2 1
   2    1    6 1
   3    1   34 1
   4    1   35 1
   5    2    3 1
   6    2   19 1
   7    2   36 1
   8    3    4 1
   9    3   37 1
  10    3   38 1
  11    4    5 1
  12    4    7 2
  13    5    6 1
  14    5   10 1
  15    5   30 1
  16    6   39 1
  17    6   40 1
  18    7    8 1
  19    7   41 1
  20    8    9 1
  21    8   42 1
  22    8   43 1
  23    9   10 1
  24    9   18 1
  25    9   11 1
  26   10   31 1
  27   10   14 1
  28   11   15 1
  29   11   27 1
  30   11   12 1
  31   12   13 1
  32   12   33 1
  33   12   17 1
  34   13   14 1
  35   13   44 1
  36   13   45 1
  37   14   46 1
  38   14   47 1
  39   15   16 1
  40   15   48 1
  41   15   49 1
  42   16   17 1
  43   16   50 1
  44   16   51 1
  45   17   20 1
  46   17   32 1
  47   19   52 1
  48   20   21 1
  49   20   28 1
  50   20   29 1
  51   21   22 1
  52   21   53 1
  53   21   54 1
  54   22   23 1
  55   22   55 1
  56   22   56 1
  57   23   24 1
  58   23   57 1
  59   23   58 1
  60   24   25 1
  61   24   26 1
  62   24   59 1
  63   25   60 1
  64   25   61 1
  65   25   62 1
  66   26   63 1
  67   26   64 1
  68   26   65 1
  69   28   66 1
  70   28   67 1
  71   28   68 1
  72   29   69 1
  73   30   70 1
  74   30   71 1
  75   30   72 1
  76   33   73 1
  77   33   74 1
  78   33   75 1

#	End of record

