#	Name: ASD01120100
#	Creating user name:	WinNT
#	Creation time:	15. 06. 2019 18:59

#	Modifying user name:	WinNT
#	Modification time:	15. 06. 2019 18:59

#	Program:	/corina/corina34_cracker 3.40 0067  02.08.2006

@<TRIPOS>MOLECULE
ASD01120100
  48   51    0    0    0
SMALL
NO_CHARGES


@<TRIPOS>ATOM
   1 C1            -1.0404    -0.4354    -0.8160 C.ar    
   2 C2             0.0150     0.0141    -0.0239 C.ar    
   3 C3            -0.1514     1.1195     0.7867 C.ar    
   4 C4            -1.3626     1.7838     0.8162 C.ar    
   5 C5            -2.4208     1.3428     0.0297 C.ar    
   6 C6            -2.2598     0.2367    -0.7915 C.ar    
   7 N7            -3.6445     2.0169     0.0625 N.am    
   8 C8            -4.7971     1.3266    -0.0445 C.2     
   9 C9            -6.1051     2.0325     0.0922 C.2     
  10 N10           -7.2578     1.3423    -0.0148 N.am    
  11 C11           -8.4793     1.9833     0.2084 C.ar    
  12 C12           -8.6509     3.3038    -0.1795 C.ar    
  13 C13           -9.8701     3.9382     0.0451 C.ar    
  14 C14          -10.9109     3.2427     0.6584 C.ar    
  15 C15          -10.7322     1.9282     1.0417 C.ar    
  16 C16           -9.5250     1.2959     0.8142 C.ar    
  17 C17          -10.0605     5.3506    -0.3667 C.2     
  18 C18          -11.2152     6.0206    -0.1775 C.2     
  19 S19          -11.0037     7.6517    -0.8090 S.3     
  20 C20           -9.3981     7.2816    -1.2633 C.2     
  21 N21           -9.1089     6.0667    -0.9480 N.2     
  22 C22           -0.8631    -1.6228    -1.6873 C.2     
  23 C23            0.2585    -2.3712    -1.6882 C.2     
  24 S24            0.0428    -3.6674    -2.8616 S.3     
  25 C25           -1.5201    -3.0859    -3.2362 C.2     
  26 N26           -1.7952    -2.0449    -2.5294 N.2     
  27 C27           -2.4487    -3.7078    -4.2472 C.3     
  28 C28           -8.4512     8.2439    -1.9329 C.3     
  29 O29           -4.7715     0.1309    -0.2520 O.2     
  30 O30           -6.1307     3.2283     0.2997 O.2     
  31 H31            0.9631    -0.5028    -0.0440 H       
  32 H32            0.6675     1.4657     1.3998 H       
  33 H33           -1.4877     2.6477     1.4522 H       
  34 H34           -3.0803    -0.1075    -1.4036 H       
  35 H35           -3.6643     2.9815     0.1623 H       
  36 H36           -7.2395     0.4006    -0.2467 H       
  37 H37           -7.8414     3.8385    -0.6540 H       
  38 H38          -11.8574     3.7323     0.8342 H       
  39 H39          -11.5400     1.3913     1.5167 H       
  40 H40           -9.3903     0.2677     1.1159 H       
  41 H41          -12.1110     5.6271     0.2797 H       
  42 H42            1.1341    -2.2052    -1.0781 H       
  43 H43           -1.9683    -4.5779    -4.6948 H       
  44 H44           -3.3702    -4.0156    -3.7530 H       
  45 H45           -2.6792    -2.9798    -5.0249 H       
  46 H46           -8.9498     9.2022    -2.0784 H       
  47 H47           -7.5712     8.3838    -1.3052 H       
  48 H48           -8.1478     7.8418    -2.8995 H       
@<TRIPOS>BOND
   1    1    2 ar
   2    1   22 1
   3    1    6 ar
   4    2    3 ar
   5    2   31 1
   6    3    4 ar
   7    3   32 1
   8    4    5 ar
   9    4   33 1
  10    5    6 ar
  11    5    7 1
  12    6   34 1
  13    7    8 am
  14    7   35 1
  15    8    9 1
  16    8   29 2
  17    9   10 am
  18    9   30 2
  19   10   11 1
  20   10   36 1
  21   11   12 ar
  22   11   16 ar
  23   12   13 ar
  24   12   37 1
  25   13   14 ar
  26   13   17 1
  27   14   15 ar
  28   14   38 1
  29   15   16 ar
  30   15   39 1
  31   16   40 1
  32   17   18 2
  33   17   21 1
  34   18   19 1
  35   18   41 1
  36   19   20 1
  37   20   21 2
  38   20   28 1
  39   22   23 2
  40   22   26 1
  41   23   24 1
  42   23   42 1
  43   24   25 1
  44   25   26 2
  45   25   27 1
  46   27   43 1
  47   27   44 1
  48   27   45 1
  49   28   46 1
  50   28   47 1
  51   28   48 1

#	End of record

