#	Name: ASD09740404
#	Creating user name:	WinNT
#	Creation time:	15. 06. 2019 21:23

#	Modifying user name:	WinNT
#	Modification time:	15. 06. 2019 21:23

#	Program:	/corina/corina34_cracker 3.40 0067  02.08.2006

@<TRIPOS>MOLECULE
ASD09740404
  66   70    0    0    0
SMALL
NO_CHARGES


@<TRIPOS>ATOM
   1 N1            -0.1468     1.3314     0.0162 N.2     
   2 C2            -0.1737     0.0228    -0.0317 C.2     
   3 C3             1.0227     1.9004     0.1060 C.2     
   4 S4             2.2715     0.6585     0.1365 S.3     
   5 C5             1.0305    -0.5875     0.0185 C.2     
   6 C6             1.2627     3.3568     0.1710 C.ar    
   7 C7             0.1882     4.2418     0.1379 C.ar    
   8 C8             2.5688     3.8465     0.2715 C.ar    
   9 C9             2.7985     5.2036     0.3328 C.ar    
  10 C10            1.7353     6.0950     0.2954 C.ar    
  11 C11            0.4207     5.6151     0.1995 C.ar    
  12 O12            1.9672     7.4303     0.3566 O.3     
  13 C13            3.3162     7.8448     0.5814 C.3     
  14 C14            4.0630     7.8963    -0.7529 C.3     
  15 C15            3.3226     9.2336     1.2234 C.3     
  16 C16           -0.6782     6.5325     0.1607 C.1     
  17 N17           -1.5499     7.2603     0.1299 N.1     
  18 C18            1.2661    -2.0461    -0.0182 C.ar    
  19 C19            2.1996    -2.5822    -0.9107 C.ar    
  20 C20            2.4152    -3.9442    -0.9397 C.ar    
  21 C21            1.7063    -4.7753    -0.0855 C.ar    
  22 C22            0.7818    -4.2504     0.7978 C.ar    
  23 C23            0.5619    -2.8890     0.8413 C.ar    
  24 C24            3.0869    -1.9000    -1.9295 C.3     
  25 C25            4.1761    -2.9377    -2.2751 C.3     
  26 C26            3.4633    -4.2747    -1.9811 C.3     
  27 N27            2.8277    -4.7899    -3.1963 N.am    
  28 S28            3.3584    -6.2057    -3.8718 S.o2    
  29 C29            2.9706    -7.4720    -2.6321 C.3     
  30 C30            3.5131    -8.8025    -3.0865 C.2     
  31 N31            3.3425    -9.8974    -2.3192 N.am    
  32 O32            2.5442    -6.3707    -5.0247 O.2     
  33 O33            4.7643    -6.0340    -3.9863 O.2     
  34 C34            3.7072   -11.3194    -2.4071 C.3     
  35 C35            2.4903   -11.6302    -1.5247 C.3     
  36 C36            2.7153   -10.1945    -1.0226 C.3     
  37 O37            1.2734   -11.8180    -2.2499 O.3     
  38 O38            4.1032    -8.8881    -4.1426 O.2     
  39 H39           -1.0975    -0.5317    -0.1060 H       
  40 H40           -0.8216     3.8658     0.0645 H       
  41 H41            3.4006     3.1582     0.3014 H       
  42 H42            3.8095     5.5752     0.4107 H       
  43 H43            3.8084     7.1350     1.2462 H       
  44 H44            5.0919     8.2125    -0.5814 H       
  45 H45            4.0584     6.9069    -1.2103 H       
  46 H46            3.5707     8.6062    -1.4176 H       
  47 H47            2.7906     9.1969     2.1740 H       
  48 H48            4.3516     9.5498     1.3949 H       
  49 H49            2.8304     9.9435     0.5587 H       
  50 H50            1.8778    -5.8413    -0.1108 H       
  51 H51            0.2346    -4.9064     1.4586 H       
  52 H52           -0.1605    -2.4786     1.5313 H       
  53 H53            2.5128    -1.6434    -2.8198 H       
  54 H54            3.5389    -1.0062    -1.4994 H       
  55 H55            4.4557    -2.8706    -3.3265 H       
  56 H56            5.0476    -2.8135    -1.6324 H       
  57 H57            4.1722    -5.0025    -1.5864 H       
  58 H58            2.0960    -4.3018    -3.6052 H       
  59 H59            3.4261    -7.1999    -1.6800 H       
  60 H60            1.8897    -7.5426    -2.5107 H       
  61 H61            3.6278   -11.7264    -3.4151 H       
  62 H62            4.6595   -11.5534    -1.9313 H       
  63 H63            2.6686   -12.3979    -0.7718 H       
  64 H64            3.4033   -10.1324    -0.1794 H       
  65 H65            1.7900    -9.6436    -0.8538 H       
  66 H66            0.5087   -12.0136    -1.6911 H       
@<TRIPOS>BOND
   1    1    2 1
   2    1    3 2
   3    2    5 2
   4    2   39 1
   5    3    4 1
   6    3    6 1
   7    4    5 1
   8    5   18 1
   9    6    7 ar
  10    6    8 ar
  11    7   11 ar
  12    7   40 1
  13    8    9 ar
  14    8   41 1
  15    9   10 ar
  16    9   42 1
  17   10   11 ar
  18   10   12 1
  19   11   16 1
  20   12   13 1
  21   13   14 1
  22   13   15 1
  23   13   43 1
  24   14   44 1
  25   14   45 1
  26   14   46 1
  27   15   47 1
  28   15   48 1
  29   15   49 1
  30   16   17 3
  31   18   19 ar
  32   18   23 ar
  33   19   20 ar
  34   19   24 1
  35   20   21 ar
  36   20   26 1
  37   21   22 ar
  38   21   50 1
  39   22   23 ar
  40   22   51 1
  41   23   52 1
  42   24   25 1
  43   24   53 1
  44   24   54 1
  45   25   26 1
  46   25   55 1
  47   25   56 1
  48   26   27 1
  49   26   57 1
  50   27   28 am
  51   27   58 1
  52   28   29 1
  53   28   32 2
  54   28   33 2
  55   29   30 1
  56   29   59 1
  57   29   60 1
  58   30   31 am
  59   30   38 2
  60   31   34 1
  61   31   36 1
  62   34   35 1
  63   34   61 1
  64   34   62 1
  65   35   36 1
  66   35   37 1
  67   35   63 1
  68   36   64 1
  69   36   65 1
  70   37   66 1

#	End of record

