#	Name: ASD04590339
#	Creating user name:	WinNT
#	Creation time:	15. 06. 2019 20:50

#	Modifying user name:	WinNT
#	Modification time:	15. 06. 2019 20:50

#	Program:	/corina/corina34_cracker 3.40 0067  02.08.2006

@<TRIPOS>MOLECULE
ASD04590339
  49   53    0    0    0
SMALL
NO_CHARGES


@<TRIPOS>ATOM
   1 C1            -0.0167     1.3834     0.0096 C.ar    
   2 C2             0.0021    -0.0041     0.0020 C.ar    
   3 C3             1.1863    -0.6848    -0.0130 C.ar    
   4 C4             2.3948     0.0191    -0.0208 C.ar    
   5 C5             2.3756     1.4250    -0.0131 C.ar    
   6 C6             1.1624     2.0987     0.0022 C.ar    
   7 N7             3.6952    -0.3636    -0.0361 N.2     
   8 C8             4.4664     0.6967    -0.0382 C.2     
   9 N9             3.6970     1.8290    -0.0243 N.pl3   
  10 C10            5.9437     0.6731    -0.0533 C.2     
  11 C11            6.7565    -0.4840    -0.0683 C.2     
  12 C12            8.0504    -0.0800    -0.0790 C.2     
  13 N13            8.0626     1.2789    -0.0713 N.pl3   
  14 N14            6.7358     1.7273    -0.0610 N.2     
  15 N15            6.3043    -1.8134    -0.0714 N.am    
  16 C16            7.1922    -2.8272    -0.0863 C.2     
  17 C17            6.7174    -4.2230    -0.0895 C.ar    
  18 O18            8.3852    -2.5907    -0.0970 O.2     
  19 C19            4.9065    -5.8006    -0.0740 C.ar    
  20 C20            5.8243    -6.8474    -0.0947 C.ar    
  21 C21            7.1900    -6.5799    -0.1075 C.ar    
  22 C22            7.6379    -5.2771    -0.1050 C.ar    
  23 C23            5.3465    -4.4969    -0.0714 C.ar    
  24 N24            5.3753    -8.1636    -0.0973 N.3     
  25 Cl25           9.3415    -4.9435    -0.1215 Cl      
  26 C26            6.5041    -9.1053    -0.1204 C.3     
  27 C27            5.9676   -10.5380    -0.0622 C.3     
  28 O28            5.0648   -10.7483    -1.1512 O.3     
  29 C29            3.9531    -9.8486    -1.1593 C.3     
  30 C30            4.4691    -8.4089    -1.2286 C.3     
  31 H31           -0.9614     1.9069     0.0170 H       
  32 H32           -0.9290    -0.5513     0.0084 H       
  33 H33            1.1893    -1.7648    -0.0185 H       
  34 H34            1.1417     3.1785     0.0079 H       
  35 H35            4.0192     2.7439    -0.0227 H       
  36 H36            8.9175    -0.7237    -0.0916 H       
  37 H37            8.8531     1.8410    -0.0757 H       
  38 H38            5.3528    -2.0021    -0.0628 H       
  39 H39            3.8475    -6.0122    -0.0645 H       
  40 H40            7.8992    -7.3942    -0.1236 H       
  41 H41            4.6335    -3.6859    -0.0550 H       
  42 H42            7.0745    -8.9672    -1.0389 H       
  43 H43            7.1482    -8.9225     0.7397 H       
  44 H44            6.7976   -11.2407    -0.1366 H       
  45 H45            5.4428   -10.6921     0.8806 H       
  46 H46            3.3260   -10.0527    -2.0272 H       
  47 H47            3.3697    -9.9827    -0.2484 H       
  48 H48            3.6277    -7.7178    -1.1775 H       
  49 H49            5.0070    -8.2597    -2.1649 H       
@<TRIPOS>BOND
   1    1    2 ar
   2    1    6 ar
   3    1   31 1
   4    2    3 ar
   5    2   32 1
   6    3    4 ar
   7    3   33 1
   8    4    5 ar
   9    4    7 1
  10    5    6 ar
  11    5    9 1
  12    6   34 1
  13    7    8 2
  14    8    9 1
  15    8   10 1
  16    9   35 1
  17   10   11 1
  18   10   14 2
  19   11   12 2
  20   11   15 1
  21   12   13 1
  22   12   36 1
  23   13   14 1
  24   13   37 1
  25   15   16 am
  26   15   38 1
  27   16   17 1
  28   16   18 2
  29   17   22 ar
  30   17   23 ar
  31   19   20 ar
  32   19   23 ar
  33   19   39 1
  34   20   21 ar
  35   20   24 1
  36   21   22 ar
  37   21   40 1
  38   22   25 1
  39   23   41 1
  40   24   26 1
  41   24   30 1
  42   26   27 1
  43   26   42 1
  44   26   43 1
  45   27   28 1
  46   27   44 1
  47   27   45 1
  48   28   29 1
  49   29   30 1
  50   29   46 1
  51   29   47 1
  52   30   48 1
  53   30   49 1

#	End of record

