#	Name: ASD01916719
#	Creating user name:	WinNT
#	Creation time:	15. 06. 2019 20:07

#	Modifying user name:	WinNT
#	Modification time:	15. 06. 2019 20:07

#	Program:	/corina/corina34_cracker 3.40 0067  02.08.2006

@<TRIPOS>MOLECULE
ASD01916719
  41   44    0    0    0
SMALL
NO_CHARGES


@<TRIPOS>ATOM
   1 O1            -0.0161     1.3381     0.0094 O.3     
   2 C2             0.0021    -0.0041     0.0020 C.2     
   3 N3             1.2275    -0.4371    -0.0120 N.2     
   4 C4             2.0689     0.6290    -0.0143 C.ar    
   5 C5             1.2623     1.7760    -0.0005 C.ar    
   6 C6             1.8479     3.0331     0.0011 C.ar    
   7 C7             3.2230     3.1573    -0.0110 C.ar    
   8 C8             4.0320     2.0347    -0.0252 C.ar    
   9 C9             3.4680     0.7646    -0.0269 C.ar    
  10 C10           -1.2224    -0.8826     0.0094 C.3     
  11 C11           -1.6228    -1.1871     1.4544 C.3     
  12 C12           -2.8188    -2.0452     1.4616 C.1     
  13 C13           -3.7726    -2.7296     1.4674 C.1     
  14 C14           -4.9361    -3.5644     1.4744 C.ar    
  15 C15           -5.4870    -3.9741     2.6893 C.ar    
  16 C16           -6.6111    -4.7804     2.6793 C.ar    
  17 C17           -7.1496    -5.1521     1.4550 C.ar    
  18 C18           -6.5529    -4.7101     0.2887 C.ar    
  19 N19           -5.4858    -3.9383     0.3248 N.ar    
  20 C20            4.3347    -0.4374    -0.0421 C.ar    
  21 C21            5.3638    -0.5464    -0.9764 C.ar    
  22 C22            6.1676    -1.6680    -0.9858 C.ar    
  23 C23            5.9539    -2.6831    -0.0706 C.ar    
  24 C24            4.9343    -2.5806     0.8588 C.ar    
  25 C25            4.1277    -1.4612     0.8815 C.ar    
  26 H26            1.2271     3.9168     0.0114 H       
  27 H27            3.6714     4.1398    -0.0097 H       
  28 H28            5.1062     2.1460    -0.0349 H       
  29 H29           -2.0413    -0.3687    -0.4939 H       
  30 H30           -1.0038    -1.8149    -0.5112 H       
  31 H31           -0.8039    -1.7010     1.9577 H       
  32 H32           -1.8414    -0.2548     1.9750 H       
  33 H33           -5.0419    -3.6664     3.6240 H       
  34 H34           -7.0596    -5.1136     3.6036 H       
  35 H35           -8.0265    -5.7812     1.4139 H       
  36 H36           -6.9697    -4.9982    -0.6650 H       
  37 H37            5.5314     0.2453    -1.6916 H       
  38 H38            6.9649    -1.7537    -1.7093 H       
  39 H39            6.5852    -3.5593    -0.0819 H       
  40 H40            4.7719    -3.3765     1.5706 H       
  41 H41            3.3351    -1.3801     1.6106 H       
@<TRIPOS>BOND
   1    1    2 1
   2    1    5 1
   3    2    3 2
   4    2   10 1
   5    3    4 1
   6    4    5 ar
   7    4    9 ar
   8    5    6 ar
   9    6    7 ar
  10    6   26 1
  11    7    8 ar
  12    7   27 1
  13    8    9 ar
  14    8   28 1
  15    9   20 1
  16   10   11 1
  17   10   29 1
  18   10   30 1
  19   11   12 1
  20   11   31 1
  21   11   32 1
  22   12   13 3
  23   13   14 1
  24   14   15 ar
  25   14   19 ar
  26   15   16 ar
  27   15   33 1
  28   16   17 ar
  29   16   34 1
  30   17   18 ar
  31   17   35 1
  32   18   19 ar
  33   18   36 1
  34   20   21 ar
  35   20   25 ar
  36   21   22 ar
  37   21   37 1
  38   22   23 ar
  39   22   38 1
  40   23   24 ar
  41   23   39 1
  42   24   25 ar
  43   24   40 1
  44   25   41 1

#	End of record

