#	Name: ASD02440044
#	Creating user name:	WinNT
#	Creation time:	15. 06. 2019 20:21

#	Modifying user name:	WinNT
#	Modification time:	15. 06. 2019 20:21

#	Program:	/corina/corina34_cracker 3.40 0067  02.08.2006

@<TRIPOS>MOLECULE
ASD02440044
  62   66    0    0    0
SMALL
NO_CHARGES


@<TRIPOS>ATOM
   1 N1             0.0436     1.4853     0.6615 N.am    
   2 C2             0.0487     0.1281     0.8330 C.2     
   3 S3             1.7187    -0.4110     0.5869 S.3     
   4 C4             2.3516     1.2141     0.2612 C.2     
   5 C5             1.1811     2.0936     0.3699 C.2     
   6 N6            -0.9844    -0.6290     1.1244 N.2     
   7 C7            -0.8239    -1.9813     1.2659 C.ar    
   8 C8            -1.1994     2.2496     0.7922 C.3     
   9 C9            -1.3714     2.6878     2.2238 C.ar    
  10 O10            1.2526     3.2970     0.2035 O.2     
  11 C11            3.6302     1.5651    -0.0238 C.2     
  12 C12            4.7052     0.5669     0.0715 C.ar    
  13 C13            5.9063     0.7593    -0.6202 C.ar    
  14 C14            6.9119    -0.1799    -0.5271 C.ar    
  15 C15            6.7379    -1.3122     0.2478 C.ar    
  16 C16            5.5494    -1.5134     0.9383 C.ar    
  17 C17            4.5343    -0.5767     0.8586 C.ar    
  18 C18           -1.4178    -2.6493     2.3390 C.ar    
  19 C19           -1.2525    -4.0118     2.4764 C.ar    
  20 C20           -0.4990    -4.7177     1.5524 C.ar    
  21 C21            0.0926    -4.0605     0.4857 C.ar    
  22 C22           -0.0704    -2.6991     0.3346 C.ar    
  23 C23           -2.2042     2.2677     4.4294 C.ar    
  24 C24           -2.0428     1.8725     3.1177 C.ar    
  25 C25           -0.8522     3.9011     2.6397 C.ar    
  26 C26           -1.0060     4.3084     3.9487 C.ar    
  27 C27           -1.6874     3.4932     4.8546 C.ar    
  28 C28           -1.8568     3.9232     6.2577 C.2     
  29 O29           -2.4468     3.2102     7.0445 O.2     
  30 O30           -1.3570     5.1061     6.6647 O.3     
  31 F31           -0.3402    -6.0520     1.6923 F       
  32 O32            5.3856    -2.6290     1.6970 O.3     
  33 C33            6.4763    -3.5513     1.7385 C.3     
  34 C34            6.1150    -4.7172     2.6223 C.ar    
  35 C35            5.4971    -5.8292     2.0812 C.ar    
  36 C36            5.1656    -6.8987     2.8919 C.ar    
  37 C37            5.4523    -6.8564     4.2436 C.ar    
  38 C38            6.0710    -5.7448     4.7844 C.ar    
  39 C39            6.4064    -4.6771     3.9729 C.ar    
  40 H40           -1.1564     3.1266     0.1465 H       
  41 H41           -2.0429     1.6242     0.4999 H       
  42 H42            3.8586     2.5781    -0.3208 H       
  43 H43            6.0455     1.6421    -1.2265 H       
  44 H44            7.8385    -0.0308    -1.0616 H       
  45 H45            7.5297    -2.0436     0.3161 H       
  46 H46            3.6101    -0.7320     1.3954 H       
  47 H47           -2.0050    -2.1000     3.0601 H       
  48 H48           -1.7110    -4.5294     3.3060 H       
  49 H49            0.6788    -4.6159    -0.2315 H       
  50 H50            0.3912    -2.1878    -0.4972 H       
  51 H51           -2.7291     1.6307     5.1259 H       
  52 H52           -2.4418     0.9247     2.7876 H       
  53 H53           -0.3251     4.5305     1.9380 H       
  54 H54           -0.6000     5.2555     4.2721 H       
  55 H55           -1.4927     5.3444     7.5919 H       
  56 H56            6.6869    -3.9105     0.7311 H       
  57 H57            7.3591    -3.0523     2.1382 H       
  58 H58            5.2731    -5.8623     1.0252 H       
  59 H59            4.6823    -7.7672     2.4694 H       
  60 H60            5.1927    -7.6916     4.8771 H       
  61 H61            6.2947    -5.7116     5.8405 H       
  62 H62            6.8931    -3.8102     4.3948 H       
@<TRIPOS>BOND
   1    1    2 1
   2    1    5 am
   3    1    8 1
   4    2    3 1
   5    2    6 2
   6    3    4 1
   7    4    5 1
   8    4   11 2
   9    5   10 2
  10    6    7 1
  11    7   18 ar
  12    7   22 ar
  13    8    9 1
  14    8   40 1
  15    8   41 1
  16    9   25 ar
  17    9   24 ar
  18   11   12 1
  19   11   42 1
  20   12   13 ar
  21   12   17 ar
  22   13   14 ar
  23   13   43 1
  24   14   15 ar
  25   14   44 1
  26   15   16 ar
  27   15   45 1
  28   16   17 ar
  29   16   32 1
  30   17   46 1
  31   18   19 ar
  32   18   47 1
  33   19   20 ar
  34   19   48 1
  35   20   21 ar
  36   20   31 1
  37   21   22 ar
  38   21   49 1
  39   22   50 1
  40   23   24 ar
  41   23   27 ar
  42   23   51 1
  43   24   52 1
  44   25   26 ar
  45   25   53 1
  46   26   27 ar
  47   26   54 1
  48   27   28 1
  49   28   29 2
  50   28   30 1
  51   30   55 1
  52   32   33 1
  53   33   34 1
  54   33   56 1
  55   33   57 1
  56   34   35 ar
  57   34   39 ar
  58   35   36 ar
  59   35   58 1
  60   36   37 ar
  61   36   59 1
  62   37   38 ar
  63   37   60 1
  64   38   39 ar
  65   38   61 1
  66   39   62 1

#	End of record

