#	Name: ASD03540333
#	Creating user name:	WinNT
#	Creation time:	15. 06. 2019 20:43

#	Modifying user name:	WinNT
#	Modification time:	15. 06. 2019 20:43

#	Program:	/corina/corina34_cracker 3.40 0067  02.08.2006

@<TRIPOS>MOLECULE
ASD03540333
  57   60    0    0    0
SMALL
NO_CHARGES


@<TRIPOS>ATOM
   1 C1            -0.0161     1.3365     0.0094 C.2     
   2 N2             0.0021    -0.0041     0.0020 N.am    
   3 C3             1.1931    -0.7075    -0.0132 C.2     
   4 C4             2.3928    -0.0051    -0.0209 C.2     
   5 C5             2.3194     1.4734    -0.0115 C.2     
   6 N6             1.1110     2.0661     0.0025 N.am    
   7 C7             3.5129    -0.8381    -0.0361 C.2     
   8 C8             3.2256    -2.1516    -0.0404 C.2     
   9 S9             1.4874    -2.3902    -0.0250 S.3     
  10 C10            4.2183    -3.2259    -0.0565 C.2     
  11 O11            5.4048    -2.9577    -0.0671 O.2     
  12 O12            3.8179    -4.5143    -0.0595 O.3     
  13 O13            3.3358     2.1426    -0.0175 O.2     
  14 O14           -1.0880     1.9101     0.0175 O.2     
  15 C15           -1.2652    -0.7390     0.0107 C.3     
  16 C16            1.0243     3.5285     0.0113 C.3     
  17 C17            1.0082     4.0223     1.4350 C.ar    
  18 C18            2.1988     4.3190     2.0745 C.ar    
  19 C19            2.1912     4.7718     3.3775 C.ar    
  20 C20            0.9785     4.9305     4.0510 C.ar    
  21 C21           -0.2192     4.6292     3.3996 C.ar    
  22 C22           -0.1975     4.1822     2.0948 C.ar    
  23 C23            0.9627     5.4145     5.4467 C.2     
  24 O24            2.0063     5.6755     6.0109 O.2     
  25 O25           -0.2091     5.5665     6.0936 O.3     
  26 C26            4.8413    -5.5116    -0.0754 C.3     
  27 C27            4.2094    -6.8798    -0.0765 C.ar    
  28 C28            5.0088    -8.0138    -0.0909 C.ar    
  29 C29            4.4241    -9.2717    -0.0919 C.ar    
  30 C30            3.0478    -9.3925    -0.0785 C.ar    
  31 C31            2.2535    -8.2611    -0.0647 C.ar    
  32 C32            2.8341    -7.0059    -0.0574 C.ar    
  33 O33            6.3623    -7.8923    -0.1044 O.3     
  34 C34            7.1221    -9.1025    -0.1188 C.3     
  35 C35            8.6149    -8.7672    -0.1326 C.3     
  36 H36            4.5244    -0.4597    -0.0438 H       
  37 H37           -2.0950    -0.0322     0.0228 H       
  38 H38           -1.3307    -1.3609    -0.8820 H       
  39 H39           -1.3130    -1.3705     0.8978 H       
  40 H40            1.8863     3.9467    -0.5086 H       
  41 H41            0.1095     3.8412    -0.4921 H       
  42 H42            3.1361     4.1954     1.5525 H       
  43 H43            3.1213     5.0027     3.8756 H       
  44 H44           -1.1607     4.7494     3.9150 H       
  45 H45           -1.1234     3.9527     1.5884 H       
  46 H46           -0.1689     5.8859     7.0055 H       
  47 H47            5.4510    -5.3923    -0.9710 H       
  48 H48            5.4691    -5.4021     0.8089 H       
  49 H49            5.0442   -10.1558    -0.1034 H       
  50 H50            2.5921   -10.3716    -0.0793 H       
  51 H51            1.1779    -8.3576    -0.0550 H       
  52 H52            2.2115    -6.1236    -0.0417 H       
  53 H53            6.8895    -9.6881     0.7706 H       
  54 H54            6.8708    -9.6787    -1.0093 H       
  55 H55            9.1945    -9.6903    -0.1436 H       
  56 H56            8.8475    -8.1816    -1.0220 H       
  57 H57            8.8661    -8.1910     0.7578 H       
@<TRIPOS>BOND
   1    1    2 am
   2    1    6 am
   3    1   14 2
   4    2    3 1
   5    2   15 1
   6    3    4 2
   7    3    9 1
   8    4    5 1
   9    4    7 1
  10    5    6 am
  11    5   13 2
  12    6   16 1
  13    7    8 2
  14    7   36 1
  15    8    9 1
  16    8   10 1
  17   10   11 2
  18   10   12 1
  19   12   26 1
  20   15   37 1
  21   15   38 1
  22   15   39 1
  23   16   17 1
  24   16   40 1
  25   16   41 1
  26   17   18 ar
  27   17   22 ar
  28   18   19 ar
  29   18   42 1
  30   19   20 ar
  31   19   43 1
  32   20   21 ar
  33   20   23 1
  34   21   22 ar
  35   21   44 1
  36   22   45 1
  37   23   24 2
  38   23   25 1
  39   25   46 1
  40   26   27 1
  41   26   47 1
  42   26   48 1
  43   27   28 ar
  44   27   32 ar
  45   28   29 ar
  46   28   33 1
  47   29   30 ar
  48   29   49 1
  49   30   31 ar
  50   30   50 1
  51   31   32 ar
  52   31   51 1
  53   32   52 1
  54   33   34 1
  55   34   35 1
  56   34   53 1
  57   34   54 1
  58   35   55 1
  59   35   56 1
  60   35   57 1

#	End of record

