#	Name: ASD01917027
#	Creating user name:	WinNT
#	Creation time:	15. 06. 2019 20:08

#	Modifying user name:	WinNT
#	Modification time:	15. 06. 2019 20:08

#	Program:	/corina/corina34_cracker 3.40 0067  02.08.2006

@<TRIPOS>MOLECULE
ASD01917027
  32   34    0    0    0
SMALL
NO_CHARGES


@<TRIPOS>ATOM
   1 C1            -0.0180     1.4753     0.0102 C.ar    
   2 C2             0.0021    -0.0041     0.0020 C.2     
   3 N3             1.0774    -0.7632    -0.0119 N.2     
   4 C4             0.7195    -2.0520    -0.0155 C.2     
   5 N5            -0.5937    -2.1309    -0.0040 N.2     
   6 N6            -1.0819    -0.8144     0.0134 N.pl3   
   7 C7             1.6526    -3.2060    -0.0303 C.ar    
   8 C8             3.0289    -2.9908    -0.0416 C.ar    
   9 C9            -1.2342     2.1587     0.0312 C.ar    
  10 C10            1.1541    -4.5070    -0.0269 C.ar    
  11 C11            2.0284    -5.5798    -0.0402 C.ar    
  12 C12            3.4008    -5.3577    -0.0568 C.ar    
  13 C13            3.8957    -4.0654    -0.0549 C.ar    
  14 O14            1.5454    -6.8507    -0.0365 O.3     
  15 C15            1.1793     2.1916     0.0026 C.ar    
  16 C16            1.1552     3.5705     0.0102 C.ar    
  17 C17           -0.0555     4.2447     0.0258 C.ar    
  18 C18           -1.2475     3.5378     0.0387 C.ar    
  19 F19            4.2531    -6.4058    -0.0694 F       
  20 C20            0.1248    -7.0047    -0.0186 C.3     
  21 F21           -0.0739     5.5955     0.0340 F       
  22 H22           -2.0122    -0.5400     0.0251 H       
  23 H23            3.4179    -1.9833    -0.0405 H       
  24 H24           -2.1636     1.6087     0.0414 H       
  25 H25            0.0878    -4.6780    -0.0136 H       
  26 H26            4.9624    -3.8970    -0.0678 H       
  27 H27            2.1234     1.6671    -0.0089 H       
  28 H28            2.0815     4.1259     0.0043 H       
  29 H29           -2.1885     4.0677     0.0508 H       
  30 H30           -0.2803    -6.5348     0.8775 H       
  31 H31           -0.3031    -6.5313    -0.9023 H       
  32 H32           -0.1256    -8.0655    -0.0175 H       
@<TRIPOS>BOND
   1    1    2 1
   2    1   15 ar
   3    1    9 ar
   4    2    3 2
   5    2    6 1
   6    3    4 1
   7    4    5 2
   8    4    7 1
   9    5    6 1
  10    6   22 1
  11    7    8 ar
  12    7   10 ar
  13    8   13 ar
  14    8   23 1
  15    9   18 ar
  16    9   24 1
  17   10   11 ar
  18   10   25 1
  19   11   12 ar
  20   11   14 1
  21   12   13 ar
  22   12   19 1
  23   13   26 1
  24   14   20 1
  25   15   16 ar
  26   15   27 1
  27   16   17 ar
  28   16   28 1
  29   17   18 ar
  30   17   21 1
  31   18   29 1
  32   20   30 1
  33   20   31 1
  34   20   32 1

#	End of record

