#	Name: ASD01903018
#	Creating user name:	WinNT
#	Creation time:	15. 06. 2019 19:54

#	Modifying user name:	WinNT
#	Modification time:	15. 06. 2019 19:54

#	Program:	/corina/corina34_cracker 3.40 0067  02.08.2006

@<TRIPOS>MOLECULE
ASD01903018
  29   30    0    0    0
SMALL
NO_CHARGES


@<TRIPOS>ATOM
   1 C1            -0.0227     1.3849     0.0175 C.ar    
   2 C2            -0.0078    -0.0008     0.0156 C.ar    
   3 C3             1.2021    -0.6811     0.0040 C.ar    
   4 C4             2.3918     0.0215    -0.0051 C.ar    
   5 C5             2.3813     1.4031    -0.0028 C.ar    
   6 C6             1.1735     2.0893     0.0078 C.ar    
   7 N7             1.1627     3.4875     0.0097 N.am    
   8 C8             0.1937     4.1548    -0.6477 C.2     
   9 O9            -0.6135     3.5458    -1.3215 O.2     
  10 C10            0.1127     5.6322    -0.5488 C.2     
  11 O11           -1.1771    -0.6933     0.0255 O.3     
  12 N12            0.9061     6.4202     0.1335 N.2     
  13 O13            0.5843     7.5798     0.0168 O.3     
  14 C14           -0.4880     7.7227    -0.7743 C.2     
  15 C15           -0.8389     6.4806    -1.1806 C.2     
  16 C16           -1.1671     9.0160    -1.1447 C.3     
  17 C17           -1.0865    -2.1194     0.0229 C.3     
  18 H18           -0.9631     1.9159     0.0220 H       
  19 H19            1.2136    -1.7610     0.0025 H       
  20 H20            3.3318    -0.5103    -0.0138 H       
  21 H21            3.3126     1.9499    -0.0093 H       
  22 H22            1.8526     3.9772     0.4841 H       
  23 H23           -1.6556     6.1983    -1.8284 H       
  24 H24           -0.6503     9.8478    -0.6660 H       
  25 H25           -1.1383     9.1446    -2.2267 H       
  26 H26           -2.2039     8.9910    -0.8093 H       
  27 H27           -0.5589    -2.4483    -0.8724 H       
  28 H28           -0.5425    -2.4505     0.9074 H       
  29 H29           -2.0890    -2.5471     0.0316 H       
@<TRIPOS>BOND
   1    1    2 ar
   2    1    6 ar
   3    1   18 1
   4    2    3 ar
   5    2   11 1
   6    3    4 ar
   7    3   19 1
   8    4    5 ar
   9    4   20 1
  10    5    6 ar
  11    5   21 1
  12    6    7 1
  13    7    8 am
  14    7   22 1
  15    8    9 2
  16    8   10 1
  17   10   12 2
  18   10   15 1
  19   11   17 1
  20   12   13 1
  21   13   14 1
  22   14   15 2
  23   14   16 1
  24   15   23 1
  25   16   24 1
  26   16   25 1
  27   16   26 1
  28   17   27 1
  29   17   28 1
  30   17   29 1

#	End of record

