#	Name: ASD01815789
#	Creating user name:	WinNT
#	Creation time:	15. 06. 2019 19:34

#	Modifying user name:	WinNT
#	Modification time:	15. 06. 2019 19:34

#	Program:	/corina/corina34_cracker 3.40 0067  02.08.2006

@<TRIPOS>MOLECULE
ASD01815789
  62   67    0    0    0
SMALL
NO_CHARGES


@<TRIPOS>ATOM
   1 C1            -0.0061     1.4174    -0.0273 C.ar    
   2 C2             0.0083     0.0264    -0.0251 C.ar    
   3 C3             1.1841    -0.6631    -0.0334 C.ar    
   4 C4             2.4010     0.0355    -0.0444 C.ar    
   5 C5             2.3825     1.4517    -0.0467 C.ar    
   6 C6             1.1585     2.1282    -0.0379 C.ar    
   7 C7             3.6334    -0.6508    -0.0537 C.ar    
   8 C8             4.8094     0.0210    -0.0648 C.ar    
   9 C9             4.8467     1.4241    -0.0676 C.ar    
  10 C10            3.6537     2.1696    -0.0582 C.ar    
  11 C11            6.1157     2.1630    -0.0806 C.2     
  12 N12            6.0503     3.5147    -0.0832 N.am    
  13 C13            4.8497     4.1459    -0.0736 C.2     
  14 N14            3.7136     3.5118    -0.0624 N.2     
  15 C15            7.2855     4.3023    -0.0961 C.3     
  16 C16            7.3185     5.1834    -1.3486 C.3     
  17 C17            7.3355     5.1974     1.1459 C.3     
  18 C18            8.5898     6.0730     1.0842 C.3     
  19 O19            8.5726     6.8435    -0.1192 O.3     
  20 C20            8.5734     6.0595    -1.3140 C.3     
  21 O21            7.3784     4.3836     2.3197 O.3     
  22 O22            7.1859     1.5817    -0.0884 O.2     
  23 C23            3.6417    -2.1578    -0.0507 C.3     
  24 C24            3.5083    -2.6637    -1.4639 C.ar    
  25 C25            4.6326    -2.8955    -2.2434 C.ar    
  26 C26            4.4774    -3.3602    -3.5364 C.ar    
  27 N27            3.2788    -3.5846    -4.0353 N.ar    
  28 C28            2.1788    -3.3757    -3.3232 C.ar    
  29 C29            2.2617    -2.9130    -2.0116 C.ar    
  30 C30            0.8506    -3.6422    -3.9264 C.ar    
  31 C31           -0.3116    -3.5375    -3.1590 C.ar    
  32 C32            0.7405    -3.9967    -5.2731 C.ar    
  33 N33           -0.4412    -4.2333    -5.8092 N.ar    
  34 C34           -1.5543    -4.1468    -5.1057 C.ar    
  35 C35           -1.5278    -3.7966    -3.7689 C.ar    
  36 F36            1.8533    -4.0975    -6.0326 F       
  37 C37           -2.8092    -3.7034    -2.9813 C.3     
  38 H38           -0.9507     1.9411    -0.0250 H       
  39 H39           -0.9260    -0.5153    -0.0162 H       
  40 H40            1.1791    -1.7431    -0.0312 H       
  41 H41            1.1352     3.2079    -0.0399 H       
  42 H42            5.7361    -0.5334    -0.0714 H       
  43 H43            4.8362     5.2258    -0.0753 H       
  44 H44            8.1452     3.6322    -0.0990 H       
  45 H45            7.3390     4.5526    -2.2373 H       
  46 H46            6.4321     5.8174    -1.3714 H       
  47 H47            6.4495     5.8318     1.1736 H       
  48 H48            8.6084     6.7425     1.9442 H       
  49 H49            9.4765     5.4392     1.0975 H       
  50 H50            9.4599     5.4255    -1.3321 H       
  51 H51            8.5803     6.7192    -2.1816 H       
  52 H52            7.4114     4.8857     3.1455 H       
  53 H53            4.5787    -2.5151     0.3763 H       
  54 H54            2.8070    -2.5245     0.5468 H       
  55 H55            5.6196    -2.7144    -1.8440 H       
  56 H56            5.3505    -3.5414    -4.1458 H       
  57 H57            1.3656    -2.7434    -1.4331 H       
  58 H58           -0.2631    -3.2617    -2.1159 H       
  59 H59           -2.5017    -4.3483    -5.5834 H       
  60 H60           -3.0317    -4.6720    -2.5335 H       
  61 H61           -2.6989    -2.9564    -2.1952 H       
  62 H62           -3.6237    -3.4144    -3.6454 H       
@<TRIPOS>BOND
   1    1    2 ar
   2    1    6 ar
   3    1   38 1
   4    2    3 ar
   5    2   39 1
   6    3    4 ar
   7    3   40 1
   8    4    5 ar
   9    4    7 ar
  10    5    6 ar
  11    5   10 ar
  12    6   41 1
  13    7    8 ar
  14    7   23 1
  15    8    9 ar
  16    8   42 1
  17    9   10 ar
  18    9   11 1
  19   10   14 1
  20   11   12 am
  21   11   22 2
  22   12   13 1
  23   12   15 1
  24   13   14 2
  25   13   43 1
  26   15   16 1
  27   15   17 1
  28   15   44 1
  29   16   20 1
  30   16   45 1
  31   16   46 1
  32   17   18 1
  33   17   21 1
  34   17   47 1
  35   18   19 1
  36   18   48 1
  37   18   49 1
  38   19   20 1
  39   20   50 1
  40   20   51 1
  41   21   52 1
  42   23   24 1
  43   23   53 1
  44   23   54 1
  45   24   25 ar
  46   24   29 ar
  47   25   26 ar
  48   25   55 1
  49   26   27 ar
  50   26   56 1
  51   27   28 ar
  52   28   29 ar
  53   28   30 1
  54   29   57 1
  55   30   31 ar
  56   30   32 ar
  57   31   35 ar
  58   31   58 1
  59   32   33 ar
  60   32   36 1
  61   33   34 ar
  62   34   35 ar
  63   34   59 1
  64   35   37 1
  65   37   60 1
  66   37   61 1
  67   37   62 1

#	End of record

