#	Name: ASD00170808
#	Creating user name:	WinNT
#	Creation time:	15. 06. 2019 18:32

#	Modifying user name:	WinNT
#	Modification time:	15. 06. 2019 18:32

#	Program:	/corina/corina34_cracker 3.40 0067  02.08.2006

@<TRIPOS>MOLECULE
ASD00170808
  68   72    0    0    0
SMALL
NO_CHARGES


@<TRIPOS>ATOM
   1 C1             3.5874    -3.5762    -0.8986 C.2     
   2 N2             2.6742    -2.5884    -0.9103 N.am    
   3 C3             3.1234    -1.5222    -1.5966 C.2     
   4 C4             4.4802    -1.8231    -2.0993 C.ar    
   5 C5             5.4122    -1.1233    -2.8488 C.ar    
   6 C6             6.6284    -1.7125    -3.1570 C.ar    
   7 C7             6.9173    -2.9925    -2.7224 C.ar    
   8 C8             5.9949    -3.7048    -1.9719 C.ar    
   9 C9             4.7750    -3.1286    -1.6556 C.ar    
  10 O10            3.4593    -4.6534    -0.3527 O.2     
  11 O11            2.5155    -0.4859    -1.7740 O.2     
  12 C12            1.4329    -2.6599    -0.2958 C.2     
  13 C13            0.6607    -3.7956    -0.2155 C.2     
  14 C14           -0.5500    -3.6047     0.4560 C.2     
  15 C15           -0.7318    -2.3516     0.8957 C.2     
  16 S16            0.6507    -1.3539     0.4739 S.3     
  17 C17           -1.9217    -1.8789     1.6341 C.ar    
  18 C18           -2.3880    -2.5900     2.7411 C.ar    
  19 C19           -3.4989    -2.1431     3.4261 C.ar    
  20 C20           -4.1506    -0.9928     3.0181 C.ar    
  21 C21           -3.6939    -0.2835     1.9214 C.ar    
  22 C22           -2.5808    -0.7163     1.2310 C.ar    
  23 C23           -1.5579    -4.7053     0.6655 C.3     
  24 N24           -2.0744    -5.1504    -0.6356 N.3     
  25 C25           -2.2836    -6.6044    -0.6496 C.3     
  26 C26           -2.7839    -7.0345    -2.0300 C.3     
  27 C27           -0.9627    -7.3127    -0.3424 C.3     
  28 C28           -3.3109    -4.4373    -0.9830 C.3     
  29 C29           -4.2876    -4.5075     0.1926 C.3     
  30 C30           -2.9866    -2.9740    -1.2901 C.3     
  31 C31            1.0691    -5.0847    -0.7815 C.2     
  32 C32            1.5094    -6.1778     0.1112 C.ar    
  33 C33            1.9013    -7.4060    -0.4251 C.ar    
  34 C34            2.3110    -8.4217     0.4126 C.ar    
  35 C35            2.3339    -8.2257     1.7836 C.ar    
  36 C36            1.9459    -7.0096     2.3216 C.ar    
  37 C37            1.5406    -5.9841     1.4937 C.ar    
  38 O38            1.0457    -5.2552    -1.9866 O.2     
  39 Cl39           2.8504    -9.5094     2.8320 Cl      
  40 H40            5.1917    -0.1231    -3.1917 H       
  41 H41            7.3554    -1.1677    -3.7411 H       
  42 H42            7.8682    -3.4409    -2.9697 H       
  43 H43            6.2259    -4.7047    -1.6353 H       
  44 H44           -1.8804    -3.4882     3.0604 H       
  45 H45           -3.8609    -2.6925     4.2826 H       
  46 H46           -5.0199    -0.6472     3.5579 H       
  47 H47           -4.2076     0.6133     1.6077 H       
  48 H48           -2.2224    -0.1590     0.3781 H       
  49 H49           -1.0803    -5.5436     1.1729 H       
  50 H50           -2.3811    -4.3329     1.2751 H       
  51 H51           -3.0235    -6.8723     0.1047 H       
  52 H52           -2.9391    -8.1133    -2.0403 H       
  53 H53           -3.7250    -6.5299    -2.2488 H       
  54 H54           -2.0441    -6.7666    -2.7843 H       
  55 H55           -0.6537    -7.0795     0.6766 H       
  56 H56           -1.0956    -8.3897    -0.4443 H       
  57 H57           -0.1976    -6.9734    -1.0407 H       
  58 H58           -3.7636    -4.9008    -1.8596 H       
  59 H59           -5.2292    -4.0359    -0.0887 H       
  60 H60           -4.4673    -5.5503     0.4540 H       
  61 H61           -3.8620    -3.9861     1.0500 H       
  62 H62           -2.1215    -2.9246    -1.9514 H       
  63 H63           -3.8427    -2.5064    -1.7763 H       
  64 H64           -2.7644    -2.4485    -0.3613 H       
  65 H65            1.8832    -7.5602    -1.4939 H       
  66 H66            2.6143    -9.3721    -0.0011 H       
  67 H67            1.9655    -6.8628     3.3914 H       
  68 H68            1.2430    -5.0348     1.9139 H       
@<TRIPOS>BOND
   1    1    2 am
   2    1    9 1
   3    1   10 2
   4    2    3 am
   5    2   12 1
   6    3    4 1
   7    3   11 2
   8    4    5 ar
   9    4    9 ar
  10    5    6 ar
  11    5   40 1
  12    6    7 ar
  13    6   41 1
  14    7    8 ar
  15    7   42 1
  16    8    9 ar
  17    8   43 1
  18   12   13 2
  19   12   16 1
  20   13   14 1
  21   13   31 1
  22   14   15 2
  23   14   23 1
  24   15   16 1
  25   15   17 1
  26   17   18 ar
  27   17   22 ar
  28   18   19 ar
  29   18   44 1
  30   19   20 ar
  31   19   45 1
  32   20   21 ar
  33   20   46 1
  34   21   22 ar
  35   21   47 1
  36   22   48 1
  37   23   24 1
  38   23   49 1
  39   23   50 1
  40   24   25 1
  41   24   28 1
  42   25   26 1
  43   25   27 1
  44   25   51 1
  45   26   52 1
  46   26   53 1
  47   26   54 1
  48   27   55 1
  49   27   56 1
  50   27   57 1
  51   28   29 1
  52   28   30 1
  53   28   58 1
  54   29   59 1
  55   29   60 1
  56   29   61 1
  57   30   62 1
  58   30   63 1
  59   30   64 1
  60   31   32 1
  61   31   38 2
  62   32   33 ar
  63   32   37 ar
  64   33   34 ar
  65   33   65 1
  66   34   35 ar
  67   34   66 1
  68   35   36 ar
  69   35   39 1
  70   36   37 ar
  71   36   67 1
  72   37   68 1

#	End of record

