#	Name: ASD01917353
#	Creating user name:	WinNT
#	Creation time:	15. 06. 2019 20:09

#	Modifying user name:	WinNT
#	Modification time:	15. 06. 2019 20:09

#	Program:	/corina/corina34_cracker 3.40 0067  02.08.2006

@<TRIPOS>MOLECULE
ASD01917353
  52   55    0    0    0
SMALL
NO_CHARGES


@<TRIPOS>ATOM
   1 C1            -0.0290     1.3132    -0.0014 C.ar    
   2 N2            -0.0087    -0.0024    -0.0060 N.ar    
   3 C3             1.1455    -0.6648    -0.0147 C.ar    
   4 C4             2.3384     0.0591    -0.0190 C.ar    
   5 C5             2.2661     1.4448    -0.0139 C.ar    
   6 N6             1.0795     2.0277    -0.0053 N.ar    
   7 C7             1.1636    -2.1492    -0.0193 C.2     
   8 O8             2.2230    -2.7437    -0.0273 O.2     
   9 N9             0.0048    -2.8373    -0.0147 N.am    
  10 C10            0.0227    -4.3022    -0.0192 C.3     
  11 C11            0.7483    -4.8794    -1.2472 C.3     
  12 C12            0.9248    -6.3874    -1.0589 C.3     
  13 C13           -0.4293    -7.0546    -0.8102 C.3     
  14 C14           -1.1043    -6.3838     0.3990 C.3     
  15 C15           -0.0345    -6.2414     1.5062 C.3     
  16 C16            0.6999    -4.8933     1.2388 C.3     
  17 C17           -1.4015    -4.9178    -0.0133 C.3     
  18 C18           -2.3269    -7.1308     0.8661 C.2     
  19 N19           -2.2212    -8.4138     1.2652 N.am    
  20 O20           -3.4059    -6.5775     0.8829 O.2     
  21 C21           -5.5113    -9.0325     2.5133 C.ar    
  22 N22           -4.4620    -8.4142     2.0103 N.ar    
  23 C23           -3.3260    -9.0698     1.7966 C.ar    
  24 C24           -3.2595   -10.4270     2.1136 C.ar    
  25 C25           -4.3843   -11.0337     2.6389 C.ar    
  26 N26           -5.4810   -10.3128     2.8232 N.ar    
  27 C27           -6.7793    -8.2521     2.7466 C.3     
  28 C28           -1.3577     2.0243     0.0020 C.3     
  29 H29            3.2930    -0.4459    -0.0257 H       
  30 H30            3.1676     2.0395    -0.0166 H       
  31 H31           -0.8411    -2.3626    -0.0083 H       
  32 H32            0.1564    -4.6906    -2.1428 H       
  33 H33            1.7258    -4.4077    -1.3484 H       
  34 H34            1.3771    -6.8123    -1.9550 H       
  35 H35            1.5790    -6.5704    -0.2065 H       
  36 H36           -1.0606    -6.9382    -1.6912 H       
  37 H37           -0.2812    -8.1145    -0.6036 H       
  38 H38           -0.5105    -6.2193     2.4865 H       
  39 H39            0.6736    -7.0683     1.4515 H       
  40 H40            1.7574    -5.0734     1.0453 H       
  41 H41            0.5834    -4.2123     2.0819 H       
  42 H42           -2.0406    -4.4173     0.7141 H       
  43 H43           -1.8452    -4.8859    -1.0084 H       
  44 H44           -1.3744    -8.8795     1.1816 H       
  45 H45           -2.3517   -10.9893     1.9521 H       
  46 H46           -4.3700   -12.0825     2.8962 H       
  47 H47           -7.4028    -8.2968     1.8537 H       
  48 H48           -7.3204    -8.6818     3.5896 H       
  49 H49           -6.5316    -7.2134     2.9652 H       
  50 H50           -1.6772     2.1922     1.0305 H       
  51 H51           -1.2584     2.9822    -0.5086 H       
  52 H52           -2.0984     1.4129    -0.5133 H       
@<TRIPOS>BOND
   1    1    2 ar
   2    1    6 ar
   3    1   28 1
   4    2    3 ar
   5    3    4 ar
   6    3    7 1
   7    4    5 ar
   8    4   29 1
   9    5    6 ar
  10    5   30 1
  11    7    8 2
  12    7    9 am
  13    9   10 1
  14    9   31 1
  15   10   11 1
  16   10   16 1
  17   10   17 1
  18   11   12 1
  19   11   32 1
  20   11   33 1
  21   12   13 1
  22   12   34 1
  23   12   35 1
  24   13   14 1
  25   13   36 1
  26   13   37 1
  27   14   15 1
  28   14   17 1
  29   14   18 1
  30   15   16 1
  31   15   38 1
  32   15   39 1
  33   16   40 1
  34   16   41 1
  35   17   42 1
  36   17   43 1
  37   18   19 am
  38   18   20 2
  39   19   23 1
  40   19   44 1
  41   21   22 ar
  42   21   26 ar
  43   21   27 1
  44   22   23 ar
  45   23   24 ar
  46   24   25 ar
  47   24   45 1
  48   25   26 ar
  49   25   46 1
  50   27   47 1
  51   27   48 1
  52   27   49 1
  53   28   50 1
  54   28   51 1
  55   28   52 1

#	End of record

