#	Name: ASD01940582
#	Creating user name:	WinNT
#	Creation time:	15. 06. 2019 20:12

#	Modifying user name:	WinNT
#	Modification time:	15. 06. 2019 20:12

#	Program:	/corina/corina34_cracker 3.40 0067  02.08.2006

@<TRIPOS>MOLECULE
ASD01940582
  57   59    0    0    0
SMALL
NO_CHARGES


@<TRIPOS>ATOM
   1 C1            -0.7231     2.6984     0.4096 C.ar    
   2 C2            -1.7922     2.6525    -0.4748 C.ar    
   3 C3            -1.6130     3.0341    -1.7986 C.ar    
   4 C4            -0.3724     3.4582    -2.2344 C.ar    
   5 C5             0.6928     3.5046    -1.3557 C.ar    
   6 C6             0.5198     3.1249    -0.0314 C.ar    
   7 N7            -3.0461     2.2229    -0.0344 N.am    
   8 S8            -3.5874     0.7081    -0.4276 S.o2    
   9 C9            -2.4253    -0.4157     0.3954 C.3     
  10 O10           -4.8714     0.6272     0.1759 O.2     
  11 O11           -3.4353     0.6369    -1.8386 O.2     
  12 O12            1.5682     3.1715     0.8316 O.3     
  13 C13            2.7915     3.4952     0.3333 C.ar    
  14 C14            3.6716     2.4942    -0.0512 C.ar    
  15 C15            4.9170     2.8217    -0.5586 C.ar    
  16 C16            5.2899     4.1489    -0.6851 C.ar    
  17 C17            4.4149     5.1564    -0.3031 C.ar    
  18 C18            3.1590     4.8299     0.2034 C.ar    
  19 N19            4.7922     6.4986    -0.4313 N.pl3   
  20 C20            5.8988     6.8423    -1.2144 C.ar    
  21 C21            6.2166     6.0908    -2.3380 C.ar    
  22 C22            7.3102     6.4325    -3.1096 C.ar    
  23 C23            8.0897     7.5220    -2.7646 C.ar    
  24 C24            7.7774     8.2735    -1.6459 C.ar    
  25 C25            6.6803     7.9412    -0.8727 C.ar    
  26 F26            6.3716     8.6786     0.2164 F       
  27 I27            9.7474     8.0346    -3.9387 I       
  28 N28            2.2685     5.8458     0.5865 N.am    
  29 S29            1.7963     5.9799     2.1681 S.o2    
  30 C30           -2.7515    -1.8596     0.0086 C.3     
  31 F31            5.7713     1.8436    -0.9309 F       
  32 O32            0.9391     7.1131     2.1830 O.2     
  33 O33            1.3076     4.6872     2.4987 O.2     
  34 C34            3.3305     6.3304     3.0704 C.3     
  35 C35            3.0433     6.3593     4.5729 C.3     
  36 H36           -0.8606     2.4066     1.4403 H       
  37 H37           -2.4440     2.9988    -2.4876 H       
  38 H38           -0.2349     3.7537    -3.2641 H       
  39 H39            1.6614     3.8362    -1.6995 H       
  40 H40           -3.5998     2.8118     0.5018 H       
  41 H41           -1.4080    -0.1773     0.0852 H       
  42 H42           -2.5121    -0.3006     1.4759 H       
  43 H43            3.3847     1.4576     0.0459 H       
  44 H44            6.2626     4.4006    -1.0811 H       
  45 H45            4.2860     7.1902     0.0231 H       
  46 H46            5.6093     5.2396    -2.6081 H       
  47 H47            7.5572     5.8479    -3.9835 H       
  48 H48            8.3884     9.1231    -1.3788 H       
  49 H49            1.9300     6.4691    -0.0752 H       
  50 H50           -3.7689    -2.0979     0.3188 H       
  51 H51           -2.6648    -1.9746    -1.0719 H       
  52 H52           -2.0532    -2.5348     0.5031 H       
  53 H53            4.0640     5.5532     2.8556 H       
  54 H54            3.7235     7.2976     2.7569 H       
  55 H55            3.9784     6.4826     5.1192 H       
  56 H56            2.3775     7.1920     4.7996 H       
  57 H57            2.5694     5.4238     4.8703 H       
@<TRIPOS>BOND
   1    1    2 ar
   2    1    6 ar
   3    1   36 1
   4    2    3 ar
   5    2    7 1
   6    3    4 ar
   7    3   37 1
   8    4    5 ar
   9    4   38 1
  10    5    6 ar
  11    5   39 1
  12    6   12 1
  13    7    8 am
  14    7   40 1
  15    8    9 1
  16    8   10 2
  17    8   11 2
  18    9   30 1
  19    9   41 1
  20    9   42 1
  21   12   13 1
  22   13   14 ar
  23   13   18 ar
  24   14   15 ar
  25   14   43 1
  26   15   16 ar
  27   15   31 1
  28   16   17 ar
  29   16   44 1
  30   17   18 ar
  31   17   19 1
  32   18   28 1
  33   19   20 1
  34   19   45 1
  35   20   21 ar
  36   20   25 ar
  37   21   22 ar
  38   21   46 1
  39   22   23 ar
  40   22   47 1
  41   23   24 ar
  42   23   27 1
  43   24   25 ar
  44   24   48 1
  45   25   26 1
  46   28   29 am
  47   28   49 1
  48   29   32 2
  49   29   33 2
  50   29   34 1
  51   30   50 1
  52   30   51 1
  53   30   52 1
  54   34   35 1
  55   34   53 1
  56   34   54 1
  57   35   55 1
  58   35   56 1
  59   35   57 1

#	End of record

