#	Name: ASD00170172
#	Creating user name:	WinNT
#	Creation time:	15. 06. 2019 18:31

#	Modifying user name:	WinNT
#	Modification time:	15. 06. 2019 18:31

#	Program:	/corina/corina34_cracker 3.40 0067  02.08.2006

@<TRIPOS>MOLECULE
ASD00170172
  40   43    0    0    0
SMALL
NO_CHARGES


@<TRIPOS>ATOM
   1 C1            -0.9457     1.4969     0.9609 C.2     
   2 C2            -1.1723     0.2137     1.2204 C.2     
   3 C3            -1.3432    -0.5805     0.0054 C.2     
   4 C4            -1.2347     0.1591    -1.1413 C.2     
   5 S5            -0.9367     1.7936    -0.7773 S.3     
   6 N6            -1.3550    -0.3509    -2.4181 N.pl3   
   7 C7            -1.6034    -2.0200     0.0139 C.2     
   8 C8            -2.9887    -2.5199     0.1388 C.ar    
   9 C9            -0.7753     2.2805     2.2572 C.3     
  10 C10           -1.3699     1.3707     3.3510 C.3     
  11 C11           -1.1822    -0.0269     2.7275 C.3     
  12 O12           -0.6785    -2.8065    -0.0819 O.2     
  13 C13           -3.2503    -3.8881     0.0328 C.ar    
  14 C14           -4.5410    -4.3527     0.1492 C.ar    
  15 C15           -5.5875    -3.4576     0.3730 C.ar    
  16 C16           -5.3273    -2.0911     0.4790 C.ar    
  17 C17           -4.0367    -1.6251     0.3686 C.ar    
  18 C18           -6.9773    -3.9591     0.4977 C.ar    
  19 C19           -8.0254    -3.0675     0.7213 C.ar    
  20 C20           -9.3169    -3.5399     0.8361 C.ar    
  21 C21           -9.5724    -4.8953     0.7301 C.ar    
  22 C22           -8.5363    -5.7848     0.5087 C.ar    
  23 C23           -7.2416    -5.3233     0.3860 C.ar    
  24 H24           -1.4547    -1.3065    -2.5512 H       
  25 H25           -1.3399     0.2463    -3.1823 H       
  26 H26            0.2809     2.4667     2.4516 H       
  27 H27           -1.3240     3.2209     2.2066 H       
  28 H28           -0.8099     1.4616     4.2817 H       
  29 H29           -2.4259     1.5892     3.5094 H       
  30 H30           -2.0115    -0.6789     3.0019 H       
  31 H31           -0.2353    -0.4611     3.0484 H       
  32 H32           -2.4404    -4.5811    -0.1408 H       
  33 H33           -4.7435    -5.4103     0.0669 H       
  34 H34           -6.1382    -1.3991     0.6522 H       
  35 H35           -3.8354    -0.5672     0.4511 H       
  36 H36           -7.8269    -2.0092     0.8049 H       
  37 H37          -10.1297    -2.8501     1.0093 H       
  38 H38          -10.5847    -5.2605     0.8209 H       
  39 H39           -8.7417    -6.8420     0.4275 H       
  40 H40           -6.4334    -6.0186     0.2132 H       
@<TRIPOS>BOND
   1    1    2 2
   2    1    9 1
   3    1    5 1
   4    2    3 1
   5    2   11 1
   6    3    4 2
   7    3    7 1
   8    4    5 1
   9    4    6 1
  10    6   24 1
  11    6   25 1
  12    7    8 1
  13    7   12 2
  14    8   13 ar
  15    8   17 ar
  16    9   10 1
  17    9   26 1
  18    9   27 1
  19   10   11 1
  20   10   28 1
  21   10   29 1
  22   11   30 1
  23   11   31 1
  24   13   14 ar
  25   13   32 1
  26   14   15 ar
  27   14   33 1
  28   15   16 ar
  29   15   18 1
  30   16   17 ar
  31   16   34 1
  32   17   35 1
  33   18   19 ar
  34   18   23 ar
  35   19   20 ar
  36   19   36 1
  37   20   21 ar
  38   20   37 1
  39   21   22 ar
  40   21   38 1
  41   22   23 ar
  42   22   39 1
  43   23   40 1

#	End of record

