#	Name: ASD01150848
#	Creating user name:	WinNT
#	Creation time:	15. 06. 2019 19:05

#	Modifying user name:	WinNT
#	Modification time:	15. 06. 2019 19:05

#	Program:	/corina/corina34_cracker 3.40 0067  02.08.2006

@<TRIPOS>MOLECULE
ASD01150848
  46   48    0    0    0
SMALL
NO_CHARGES


@<TRIPOS>ATOM
   1 C1            -0.0169     1.3919     0.0097 C.ar    
   2 C2             0.0021    -0.0041     0.0020 C.ar    
   3 C3             1.2238    -0.6803    -0.0133 C.ar    
   4 C4             2.4042     0.0341    -0.0207 C.ar    
   5 C5             2.3783     1.4203    -0.0126 C.ar    
   6 C6             1.1694     2.0954     0.0021 C.ar    
   7 Cl7            3.8671     2.3130    -0.0208 Cl      
   8 C8            -1.2655    -0.7629     0.0105 C.2     
   9 N9            -1.2442    -2.1105     0.0031 N.am    
  10 O10           -2.3277    -0.1719     0.0243 O.2     
  11 C11           -2.4366    -2.8243     0.0111 C.2     
  12 N12           -3.6657    -2.3026     0.0256 N.2     
  13 C13           -4.5652    -3.2651     0.0296 C.2     
  14 N14           -3.9344    -4.4707     0.0174 N.pl3   
  15 C15           -2.5623    -4.2083    -0.0006 C.2     
  16 S16           -6.3112    -3.0284     0.0483 S.3     
  17 C17           -6.3831    -1.2198     0.0577 C.3     
  18 C18           -4.5436    -5.7320     0.0171 C.ar    
  19 C19           -5.3136    -6.1324    -1.0669 C.ar    
  20 C20           -5.9130    -7.3767    -1.0642 C.ar    
  21 C21           -5.7469    -8.2235     0.0164 C.ar    
  22 C22           -4.9811    -7.8274     1.0975 C.ar    
  23 C23           -4.3740    -6.5868     1.0981 C.ar    
  24 C24           -1.5184    -5.1544    -0.0177 C.2     
  25 O25           -1.8033    -6.4745    -0.0176 O.3     
  26 O26           -0.3590    -4.7817    -0.0326 O.2     
  27 C27           -0.6957    -7.3773    -0.0354 C.3     
  28 C28           -1.2117    -8.8177    -0.0325 C.3     
  29 Cl29           3.9243    -0.8041    -0.0397 Cl      
  30 H30           -0.9589     1.9201     0.0170 H       
  31 H31            1.2446    -1.7601    -0.0189 H       
  32 H32            1.1555     3.1753     0.0084 H       
  33 H33           -0.3967    -2.5821    -0.0079 H       
  34 H34           -5.8752    -0.8406     0.9444 H       
  35 H35           -5.8930    -0.8321    -0.8354 H       
  36 H36           -7.4243    -0.8977     0.0697 H       
  37 H37           -5.4440    -5.4714    -1.9109 H       
  38 H38           -6.5123    -7.6886    -1.9068 H       
  39 H39           -6.2166    -9.1960     0.0161 H       
  40 H40           -4.8538    -8.4907     1.9403 H       
  41 H41           -3.7757    -6.2782     1.9427 H       
  42 H42           -0.1018    -7.2060    -0.9332 H       
  43 H43           -0.0773    -7.2111     0.8466 H       
  44 H44           -0.3669    -9.5063    -0.0461 H       
  45 H45           -1.8057    -8.9890     0.8652 H       
  46 H46           -1.8302    -8.9838    -0.9146 H       
@<TRIPOS>BOND
   1    1    2 ar
   2    1    6 ar
   3    1   30 1
   4    2    3 ar
   5    2    8 1
   6    3    4 ar
   7    3   31 1
   8    4    5 ar
   9    4   29 1
  10    5    6 ar
  11    5    7 1
  12    6   32 1
  13    8    9 am
  14    8   10 2
  15    9   11 1
  16    9   33 1
  17   11   12 1
  18   11   15 2
  19   12   13 2
  20   13   14 1
  21   13   16 1
  22   14   15 1
  23   14   18 1
  24   15   24 1
  25   16   17 1
  26   17   34 1
  27   17   35 1
  28   17   36 1
  29   18   19 ar
  30   18   23 ar
  31   19   20 ar
  32   19   37 1
  33   20   21 ar
  34   20   38 1
  35   21   22 ar
  36   21   39 1
  37   22   23 ar
  38   22   40 1
  39   23   41 1
  40   24   25 1
  41   24   26 2
  42   25   27 1
  43   27   28 1
  44   27   42 1
  45   27   43 1
  46   28   44 1
  47   28   45 1
  48   28   46 1

#	End of record

