#	Name: ASD01411065
#	Creating user name:	WinNT
#	Creation time:	15. 06. 2019 19:19

#	Modifying user name:	WinNT
#	Modification time:	15. 06. 2019 19:19

#	Program:	/corina/corina34_cracker 3.40 0067  02.08.2006

@<TRIPOS>MOLECULE
ASD01411065
  44   47    0    0    0
SMALL
NO_CHARGES


@<TRIPOS>ATOM
   1 C1             1.2771     1.3983    -1.1999 C.ar    
   2 C2             1.2937     0.0174    -1.2046 C.ar    
   3 C3             1.1769     2.0866     0.0020 C.ar    
   4 C4             1.2102    -0.6808    -0.0139 C.ar    
   5 C5             1.0937     1.3842     1.1962 C.ar    
   6 N6             1.1604     3.4878     0.0092 N.am    
   7 C7             1.1098     0.0017     1.1857 C.ar    
   8 C8            -0.0209     4.1363    -0.0735 C.2     
   9 C9             2.3176     4.1584     0.1037 C.2     
  10 Cl10           1.0046    -0.8784     2.6783 Cl      
  11 C11           -0.0108     5.6070    -0.0584 C.ar    
  12 O12           -1.0664     3.5203    -0.1587 O.2     
  13 N13            2.3880     5.5033     0.1160 N.am    
  14 O14            3.3512     3.5230     0.1821 O.2     
  15 C15            1.2310     6.2662     0.0390 C.ar    
  16 C16           -1.1927     6.3434    -0.1381 C.ar    
  17 C17            1.2633     7.6483     0.0609 C.ar    
  18 C18           -1.1452     7.7085    -0.1194 C.ar    
  19 C19            0.0787     8.3693    -0.0185 C.ar    
  20 N20            0.1136     9.7595     0.0009 N.pl3   
  21 C21           -1.1327    10.5247    -0.0845 C.3     
  22 C22            3.7005     6.1501     0.2074 C.3     
  23 C23           -0.8163    12.0211    -0.0424 C.3     
  24 O24           -0.0700    12.3830    -1.2060 O.3     
  25 C25            2.5796     8.3754     0.1712 C.3     
  26 C26            3.5683     7.4867     0.9400 C.3     
  27 H27            1.3465     1.9426    -2.1301 H       
  28 H28            1.3715    -0.5179    -2.1393 H       
  29 H29            1.2229    -1.7607    -0.0202 H       
  30 H30            1.0157     1.9168     2.1325 H       
  31 H31           -2.1428     5.8357    -0.2149 H       
  32 H32           -2.0602     8.2789    -0.1824 H       
  33 H33            0.9631    10.2224     0.0710 H       
  34 H34           -1.6417    10.2871    -1.0186 H       
  35 H35           -1.7765    10.2657     0.7561 H       
  36 H36            4.3862     5.5031     0.7545 H       
  37 H37            4.0898     6.3236    -0.7959 H       
  38 H38           -1.7466    12.5886    -0.0164 H       
  39 H39           -0.2299    12.2435     0.8491 H       
  40 H40            0.1661    13.3199    -1.2462 H       
  41 H41            2.9646     8.5871    -0.8263 H       
  42 H42            2.4368     9.3088     0.7155 H       
  43 H43            3.1995     7.3216     1.9523 H       
  44 H44            4.5423     7.9742     0.9799 H       
@<TRIPOS>BOND
   1    1    2 ar
   2    1    3 ar
   3    1   27 1
   4    2    4 ar
   5    2   28 1
   6    3    5 ar
   7    3    6 1
   8    4    7 ar
   9    4   29 1
  10    5    7 ar
  11    5   30 1
  12    6    9 am
  13    6    8 am
  14    7   10 1
  15    8   11 1
  16    8   12 2
  17    9   13 am
  18    9   14 2
  19   11   15 ar
  20   11   16 ar
  21   13   22 1
  22   13   15 1
  23   15   17 ar
  24   16   18 ar
  25   16   31 1
  26   17   25 1
  27   17   19 ar
  28   18   19 ar
  29   18   32 1
  30   19   20 1
  31   20   21 1
  32   20   33 1
  33   21   23 1
  34   21   34 1
  35   21   35 1
  36   22   26 1
  37   22   36 1
  38   22   37 1
  39   23   24 1
  40   23   38 1
  41   23   39 1
  42   24   40 1
  43   25   26 1
  44   25   41 1
  45   25   42 1
  46   26   43 1
  47   26   44 1

#	End of record

