#	Name: ASD00461030
#	Creating user name:	WinNT
#	Creation time:	15. 06. 2019 18:36

#	Modifying user name:	WinNT
#	Modification time:	15. 06. 2019 18:36

#	Program:	/corina/corina34_cracker 3.40 0067  02.08.2006

@<TRIPOS>MOLECULE
ASD00461030
  50   52    0    0    0
SMALL
NO_CHARGES


@<TRIPOS>ATOM
   1 C1            -0.0167     1.3806     0.0096 C.ar    
   2 C2             0.0021    -0.0041     0.0020 C.ar    
   3 C3             1.1707     2.0872     0.0021 C.ar    
   4 C4             1.2108    -0.6788    -0.0131 C.ar    
   5 C5             2.3774     1.4122    -0.0135 C.ar    
   6 C6             2.3973     0.0301    -0.0207 C.ar    
   7 C7             3.7133    -0.7041    -0.0372 C.3     
   8 N8             4.6663    -0.0209     0.8477 N.3     
   9 C9             5.6967    -0.9504     1.3296 C.3     
  10 C10            6.6538    -0.2154     2.2322 C.ar    
  11 C11            6.4064    -0.1488     3.5883 C.ar    
  12 C12            7.7806     0.3855     1.6991 C.ar    
  13 C13            7.2906     0.5300     4.4237 C.ar    
  14 C14            8.6646     1.0610     2.5188 C.ar    
  15 C15            8.4253     1.1406     3.8815 C.ar    
  16 H16            5.0833     0.7733     0.3857 H       
  17 C17            7.0292     0.6050     5.8818 C.ar    
  18 C18            5.7786     1.0058     6.3484 C.ar    
  19 C19            5.5409     1.0738     7.7062 C.ar    
  20 C20            6.5412     0.7451     8.6034 C.ar    
  21 C21            7.7843     0.3467     8.1459 C.ar    
  22 C22            8.0314     0.2695     6.7902 C.ar    
  23 O23            9.2933     1.8046     4.6883 O.3     
  24 C24           10.4339     2.3983     4.0649 C.3     
  25 F25           -1.1583    -0.6959     0.0098 F       
  26 C26            6.2757     0.8218    10.0848 C.3     
  27 F27            5.7880    -0.4095    10.5356 F       
  28 F28            7.4644     1.1266    10.7564 F       
  29 F29            5.3281     1.8195    10.3377 F       
  30 C30            4.2671    -0.7261    -1.4633 C.3     
  31 H31           -0.9591     1.9080     0.0170 H       
  32 H32            1.1563     3.1670     0.0080 H       
  33 H33            1.2267    -1.7587    -0.0187 H       
  34 H34            3.3050     1.9653    -0.0201 H       
  35 H35            3.5634    -1.7263     0.3103 H       
  36 H36            5.2240    -1.7610     1.8843 H       
  37 H37            6.2416    -1.3612     0.4797 H       
  38 H38            5.5279    -0.6221     4.0014 H       
  39 H39            7.9703     0.3260     0.6375 H       
  40 H40            9.5425     1.5276     2.0970 H       
  41 H41            4.9970     1.2630     5.6488 H       
  42 H42            4.5723     1.3845     8.0689 H       
  43 H43            8.5617     0.0915     8.8508 H       
  44 H44            9.0022    -0.0420     6.4341 H       
  45 H45           11.0239     1.6241     3.5742 H       
  46 H46           10.1050     3.1280     3.3251 H       
  47 H47           11.0430     2.8955     4.8198 H       
  48 H48            5.2189    -1.2572    -1.4752 H       
  49 H49            3.5600    -1.2331    -2.1198 H       
  50 H50            4.4170     0.2961    -1.8107 H       
@<TRIPOS>BOND
   1    1    2 ar
   2    1    3 ar
   3    1   31 1
   4    2    4 ar
   5    2   25 1
   6    3    5 ar
   7    3   32 1
   8    4    6 ar
   9    4   33 1
  10    5    6 ar
  11    5   34 1
  12    6    7 1
  13    7    8 1
  14    7   30 1
  15    7   35 1
  16    8    9 1
  17    8   16 1
  18    9   10 1
  19    9   36 1
  20    9   37 1
  21   10   11 ar
  22   10   12 ar
  23   11   13 ar
  24   11   38 1
  25   12   14 ar
  26   12   39 1
  27   13   17 1
  28   13   15 ar
  29   14   15 ar
  30   14   40 1
  31   15   23 1
  32   17   18 ar
  33   17   22 ar
  34   18   19 ar
  35   18   41 1
  36   19   20 ar
  37   19   42 1
  38   20   21 ar
  39   20   26 1
  40   21   22 ar
  41   21   43 1
  42   22   44 1
  43   23   24 1
  44   24   45 1
  45   24   46 1
  46   24   47 1
  47   26   27 1
  48   26   28 1
  49   26   29 1
  50   30   48 1
  51   30   49 1
  52   30   50 1

#	End of record

