#	Name: ASD02198292
#	Creating user name:	WinNT
#	Creation time:	15. 06. 2019 20:19

#	Modifying user name:	WinNT
#	Modification time:	15. 06. 2019 20:19

#	Program:	/corina/corina34_cracker 3.40 0067  02.08.2006

@<TRIPOS>MOLECULE
ASD02198292
  44   47    0    0    0
SMALL
NO_CHARGES


@<TRIPOS>ATOM
   1 C1            -0.0166     1.3761     0.0096 C.2     
   2 C2             0.0021    -0.0041     0.0020 C.2     
   3 S3             1.6541     1.9348    -0.0033 S.3     
   4 C4             2.2115     0.3197    -0.0173 C.2     
   5 N5             1.2123    -0.5143    -0.0123 N.2     
   6 N6            -1.1484    -0.7789     0.0088 N.pl3   
   7 C7            -1.1675     2.1929     0.0197 C.2     
   8 O8            -2.2770     1.6842     0.0225 O.2     
   9 C9            -1.0300     3.6562     0.0270 C.2     
  10 N10            3.5381    -0.0495    -0.0320 N.pl3   
  11 C11            3.9035    -1.4682    -0.0431 C.3     
  12 C12           -2.0573     4.5341     0.0369 C.2     
  13 C13           -1.6540     5.8602     0.0421 C.2     
  14 C14           -0.3061     6.0352     0.0363 C.2     
  15 S15            0.4952     4.5290     0.0318 S.3     
  16 C16           -2.6128     6.9930     0.0525 C.ar    
  17 C17           -2.1445     8.3053     0.0573 C.ar    
  18 C18           -3.9844     6.7482     0.0517 C.ar    
  19 C19           -4.8715     7.8055     0.0615 C.ar    
  20 C20           -4.4012     9.1062     0.0720 C.ar    
  21 C21           -3.0405     9.3550     0.0671 C.ar    
  22 C22            5.2979    -1.6484    -0.6684 C.3     
  23 C23            6.1891    -2.2848     0.4181 C.3     
  24 C24            5.1875    -2.9904     1.3658 C.3     
  25 C25            3.9961    -2.0013     1.4015 C.3     
  26 H26           -2.0198    -0.3531     0.0194 H       
  27 H27           -1.0814    -1.7466     0.0030 H       
  28 H28            4.2305     0.6297    -0.0350 H       
  29 H29            3.1652    -2.0392    -0.6060 H       
  30 H30           -3.0940     4.2313     0.0404 H       
  31 H31            0.1892     6.9950     0.0387 H       
  32 H32           -1.0823     8.5007     0.0538 H       
  33 H33           -4.3527     5.7330     0.0432 H       
  34 H34           -5.9349     7.6168     0.0606 H       
  35 H35           -5.0988     9.9306     0.0797 H       
  36 H36           -2.6786    10.3726     0.0757 H       
  37 H37            5.2364    -2.3076    -1.5343 H       
  38 H38            5.7027    -0.6804    -0.9636 H       
  39 H39            6.8712    -3.0106    -0.0248 H       
  40 H40            6.7447    -1.5157     0.9545 H       
  41 H41            4.8792    -3.9519     0.9553 H       
  42 H42            5.6174    -3.1135     2.3598 H       
  43 H43            4.1975    -1.1864     2.0968 H       
  44 H44            3.0777    -2.5202     1.6763 H       
@<TRIPOS>BOND
   1    1    2 2
   2    1    3 1
   3    1    7 1
   4    2    6 1
   5    2    5 1
   6    3    4 1
   7    4    5 2
   8    4   10 1
   9    6   26 1
  10    6   27 1
  11    7    8 2
  12    7    9 1
  13    9   12 2
  14    9   15 1
  15   10   11 1
  16   10   28 1
  17   11   22 1
  18   11   25 1
  19   11   29 1
  20   12   13 1
  21   12   30 1
  22   13   14 2
  23   13   16 1
  24   14   15 1
  25   14   31 1
  26   16   17 ar
  27   16   18 ar
  28   17   21 ar
  29   17   32 1
  30   18   19 ar
  31   18   33 1
  32   19   20 ar
  33   19   34 1
  34   20   21 ar
  35   20   35 1
  36   21   36 1
  37   22   23 1
  38   22   37 1
  39   22   38 1
  40   23   24 1
  41   23   39 1
  42   23   40 1
  43   24   25 1
  44   24   41 1
  45   24   42 1
  46   25   43 1
  47   25   44 1

#	End of record

