#	Name: ASD01884294
#	Creating user name:	WinNT
#	Creation time:	15. 06. 2019 19:47

#	Modifying user name:	WinNT
#	Modification time:	15. 06. 2019 19:47

#	Program:	/corina/corina34_cracker 3.40 0067  02.08.2006

@<TRIPOS>MOLECULE
ASD01884294
  26   27    0    0    0
SMALL
NO_CHARGES


@<TRIPOS>ATOM
   1 O1            -0.0163     1.3503     0.0095 O.3     
   2 C2             0.0021    -0.0041     0.0020 C.2     
   3 C3            -1.1793    -0.7221     0.0094 C.2     
   4 C4             1.2256    -0.7029    -0.0193 C.2     
   5 C5             1.2274    -2.0531    -0.0270 C.2     
   6 N6             0.0621    -2.7522    -0.0148 N.am    
   7 C7            -1.1265    -2.1209     0.0009 C.2     
   8 O8            -2.1610    -2.7698     0.0117 O.2     
   9 C9             0.1002    -4.2167    -0.0241 C.3     
  10 C10            0.1337    -4.7351     1.4150 C.3     
  11 C11            0.0577    -6.2491     1.6224 C.3     
  12 C12           -2.5065    -0.0084     0.0270 C.3     
  13 C13            1.3764    -5.5099     1.8580 C.3     
  14 F14           -2.2924     1.3741     0.0332 F       
  15 F15           -3.2409    -0.3615    -1.1102 F       
  16 F16           -3.2182    -0.3753     1.1742 F       
  17 H17            0.8617     1.7556     0.0033 H       
  18 H18            2.1592    -0.1600    -0.0299 H       
  19 H19            2.1674    -2.5846    -0.0434 H       
  20 H20           -0.7872    -4.6000    -0.5278 H       
  21 H21            0.9920    -4.5536    -0.5525 H       
  22 H22           -0.3545    -4.1007     2.1547 H       
  23 H23           -0.4801    -6.6106     2.4988 H       
  24 H24           -0.0161    -6.8758     0.7336 H       
  25 H25            2.1702    -5.6502     1.1242 H       
  26 H26            1.7061    -5.3851     2.8894 H       
@<TRIPOS>BOND
   1    1    2 1
   2    1   17 1
   3    2    3 2
   4    2    4 1
   5    3   12 1
   6    3    7 1
   7    4    5 2
   8    4   18 1
   9    5    6 1
  10    5   19 1
  11    6    7 am
  12    6    9 1
  13    7    8 2
  14    9   10 1
  15    9   20 1
  16    9   21 1
  17   10   11 1
  18   10   13 1
  19   10   22 1
  20   11   13 1
  21   11   23 1
  22   11   24 1
  23   12   14 1
  24   12   15 1
  25   12   16 1
  26   13   25 1
  27   13   26 1

#	End of record

