#	Name: ASD05250099
#	Creating user name:	WinNT
#	Creation time:	15. 06. 2019 20:58

#	Modifying user name:	WinNT
#	Modification time:	15. 06. 2019 20:58

#	Program:	/corina/corina34_cracker 3.40 0067  02.08.2006

@<TRIPOS>MOLECULE
ASD05250099
  33   35    0    0    0
SMALL
NO_CHARGES


@<TRIPOS>ATOM
   1 C1            -0.7920     1.3636    -1.0767 C.ar    
   2 C2            -0.7767    -0.0212    -1.0700 C.ar    
   3 C3            -1.2071    -0.7146     0.0503 C.ar    
   4 C4            -1.6540    -0.0238     1.1658 C.ar    
   5 C5            -1.6714     1.3610     1.1629 C.ar    
   6 C6            -1.2344     2.0581     0.0429 C.ar    
   7 N7            -1.2511     3.4596     0.0380 N.am    
   8 C8            -0.1627     4.1479     0.4357 C.2     
   9 C9            -0.1452     5.6070     0.3402 C.2     
  10 O10            0.8057     3.5549     0.8745 O.2     
  11 C11            0.9449     6.2964     0.7387 C.2     
  12 C12            0.9626     7.7631     0.6427 C.ar    
  13 C13            2.0915     8.4801     1.0551 C.ar    
  14 C14            2.1031     9.8578     0.9630 C.ar    
  15 C15            0.9902    10.5331     0.4593 C.ar    
  16 C16           -0.1299     9.8213     0.0498 C.ar    
  17 C17           -0.1473     8.4467     0.1333 C.ar    
  18 O18            3.0586    10.7767     1.2900 O.3     
  19 C19            2.6807    11.9843     0.6030 C.3     
  20 O20            1.2514    11.8718     0.4728 O.3     
  21 F21           -2.1075     2.0338     2.2503 F       
  22 F22           -2.0735    -0.7019     2.2565 F       
  23 F23           -1.1914    -2.0655     0.0549 F       
  24 F24           -0.3423    -0.6967    -2.1564 F       
  25 F25           -0.3719     2.0390    -2.1687 F       
  26 H26           -2.0459     3.9342    -0.2517 H       
  27 H27           -1.0043     6.1330    -0.0490 H       
  28 H28            1.8041     5.7703     1.1279 H       
  29 H29            2.9520     7.9568     1.4450 H       
  30 H30           -0.9892    10.3476    -0.3391 H       
  31 H31           -1.0201     7.8971    -0.1866 H       
  32 H32            2.9433    12.8603     1.1961 H       
  33 H33            3.1522    12.0299    -0.3787 H       
@<TRIPOS>BOND
   1    1    2 ar
   2    1   25 1
   3    1    6 ar
   4    2    3 ar
   5    2   24 1
   6    3    4 ar
   7    3   23 1
   8    4    5 ar
   9    4   22 1
  10    5    6 ar
  11    5   21 1
  12    6    7 1
  13    7    8 am
  14    7   26 1
  15    8    9 1
  16    8   10 2
  17    9   11 2
  18    9   27 1
  19   11   12 1
  20   11   28 1
  21   12   13 ar
  22   12   17 ar
  23   13   14 ar
  24   13   29 1
  25   14   15 ar
  26   14   18 1
  27   15   16 ar
  28   15   20 1
  29   16   17 ar
  30   16   30 1
  31   17   31 1
  32   18   19 1
  33   19   20 1
  34   19   32 1
  35   19   33 1

#	End of record

