#	Name: ASD03540219
#	Creating user name:	WinNT
#	Creation time:	15. 06. 2019 20:42

#	Modifying user name:	WinNT
#	Modification time:	15. 06. 2019 20:42

#	Program:	/corina/corina34_cracker 3.40 0067  02.08.2006

@<TRIPOS>MOLECULE
ASD03540219
  48   51    0    0    0
SMALL
NO_CHARGES


@<TRIPOS>ATOM
   1 C1             0.0079     1.3299    -0.1329 C.2     
   2 N2             0.0366    -0.0104    -0.1470 N.am    
   3 C3             1.2256    -0.7060    -0.0208 C.2     
   4 C4             2.4120     0.0041     0.1233 C.2     
   5 C5             2.3273     1.4820     0.1336 C.2     
   6 N6             1.1221     2.0668     0.0034 N.am    
   7 C7             3.5316    -0.8216     0.2398 C.2     
   8 C8             3.2566    -2.1368     0.1915 C.2     
   9 S9             1.5314    -2.3866    -0.0078 S.3     
  10 C10            4.2515    -3.2047     0.2901 C.2     
  11 O11            5.4284    -2.9288     0.4267 O.2     
  12 O12            3.8640    -4.4956     0.2293 O.3     
  13 O13            3.3319     2.1576     0.2567 O.2     
  14 O14           -1.0610     1.8966    -0.2523 O.2     
  15 C15           -1.2168    -0.7534    -0.2986 C.3     
  16 C16            1.0243     3.5285     0.0113 C.3     
  17 C17            0.8845     4.0149     1.4307 C.ar    
  18 C18            0.8826     5.3844     1.7043 C.ar    
  19 C19            0.7527     5.8264     3.0222 C.ar    
  20 C20            0.6271     4.9088     4.0449 C.ar    
  21 C21            0.6298     3.5537     3.7668 C.ar    
  22 C22            0.7525     3.1088     2.4621 C.ar    
  23 C23            1.0138     6.3310     0.6378 C.1     
  24 N24            1.1179     7.0820    -0.2082 N.1     
  25 C25            4.8887    -5.4862     0.3322 C.3     
  26 C26            4.2717    -6.8582     0.2445 C.ar    
  27 C27            4.1232    -7.4720    -0.9852 C.ar    
  28 C28            3.5572    -8.7305    -1.0657 C.ar    
  29 C29            3.1401    -9.3756     0.0836 C.ar    
  30 C30            3.2894    -8.7622     1.3134 C.ar    
  31 C31            3.8594    -7.5055     1.3943 C.ar    
  32 H32            4.5337    -0.4367     0.3588 H       
  33 H33           -2.0469    -0.0521    -0.3836 H       
  34 H34           -1.1679    -1.3690    -1.1968 H       
  35 H35           -1.3683    -1.3919     0.5717 H       
  36 H36            1.9240     3.9552    -0.4321 H       
  37 H37            0.1530     3.8375    -0.5662 H       
  38 H38            0.7508     6.8840     3.2407 H       
  39 H39            0.5269     5.2493     5.0649 H       
  40 H40            0.5316     2.8397     4.5712 H       
  41 H41            0.7494     2.0495     2.2516 H       
  42 H42            5.6027    -5.3562    -0.4811 H       
  43 H43            5.4027    -5.3793     1.2875 H       
  44 H44            4.4491    -6.9680    -1.8831 H       
  45 H45            3.4405    -9.2097    -2.0265 H       
  46 H46            2.6972   -10.3586     0.0207 H       
  47 H47            2.9632    -9.2660     2.2113 H       
  48 H48            3.9794    -7.0278     2.3554 H       
@<TRIPOS>BOND
   1    1    2 am
   2    1    6 am
   3    1   14 2
   4    2    3 1
   5    2   15 1
   6    3    4 2
   7    3    9 1
   8    4    5 1
   9    4    7 1
  10    5    6 am
  11    5   13 2
  12    6   16 1
  13    7    8 2
  14    7   32 1
  15    8    9 1
  16    8   10 1
  17   10   11 2
  18   10   12 1
  19   12   25 1
  20   15   33 1
  21   15   34 1
  22   15   35 1
  23   16   17 1
  24   16   36 1
  25   16   37 1
  26   17   18 ar
  27   17   22 ar
  28   18   19 ar
  29   18   23 1
  30   19   20 ar
  31   19   38 1
  32   20   21 ar
  33   20   39 1
  34   21   22 ar
  35   21   40 1
  36   22   41 1
  37   23   24 3
  38   25   26 1
  39   25   42 1
  40   25   43 1
  41   26   27 ar
  42   26   31 ar
  43   27   28 ar
  44   27   44 1
  45   28   29 ar
  46   28   45 1
  47   29   30 ar
  48   29   46 1
  49   30   31 ar
  50   30   47 1
  51   31   48 1

#	End of record

