#	Name: ASD01816007
#	Creating user name:	WinNT
#	Creation time:	15. 06. 2019 19:34

#	Modifying user name:	WinNT
#	Modification time:	15. 06. 2019 19:34

#	Program:	/corina/corina34_cracker 3.40 0067  02.08.2006

@<TRIPOS>MOLECULE
ASD01816007
  51   56    0    0    0
SMALL
NO_CHARGES


@<TRIPOS>ATOM
   1 C1            -0.0167     1.3813     0.0096 C.ar    
   2 C2             0.0021    -0.0041     0.0020 C.ar    
   3 C3             1.1985    -0.6908    -0.0131 C.ar    
   4 C4             2.4014     0.0060    -0.0208 C.ar    
   5 C5             2.3791     1.4105    -0.0130 C.ar    
   6 C6             1.1663     2.0916     0.0022 C.ar    
   7 N7             3.6066    -0.6779    -0.0354 N.pl3   
   8 C8             4.7996    -0.0570    -0.0434 C.2     
   9 C9             4.9005     1.3119    -0.0371 C.2     
  10 C10            3.6669     2.1304    -0.0215 C.2     
  11 C11            5.9969     2.2759    -0.0423 C.2     
  12 N12            5.4231     3.4984    -0.0307 N.am    
  13 N13            4.0310     3.3808    -0.0184 N.2     
  14 C14            6.1238     4.7112    -0.0306 C.ar    
  15 O15            7.1915     2.0270    -0.0543 O.2     
  16 C16            3.5812    -2.0747    -0.0417 C.ar    
  17 C17            6.5518     5.2677    -1.2285 C.ar    
  18 C18            7.2421     6.4641    -1.2253 C.ar    
  19 C19            7.5078     7.1088    -0.0310 C.ar    
  20 C20            7.0841     6.5586     1.1646 C.ar    
  21 C21            6.3873     5.3639     1.1688 C.ar    
  22 F22            5.9733     4.8261     2.3370 F       
  23 C23            3.5800    -2.7832     1.1659 C.ar    
  24 C24            3.5514    -2.7654    -1.2445 C.ar    
  25 C25            3.5258    -4.1469    -1.2485 C.ar    
  26 C26            3.5298    -4.8492    -0.0562 C.ar    
  27 C27            3.5541    -4.1753     1.1485 C.ar    
  28 C28            3.6066    -2.0546     2.4572 C.ar    
  29 C29            2.6870    -2.3683     3.4565 C.ar    
  30 C30            2.7167    -1.6873     4.6565 C.ar    
  31 C31            3.6569    -0.6949     4.8684 C.ar    
  32 C32            4.5717    -0.3791     3.8801 C.ar    
  33 C33            4.5550    -1.0574     2.6784 C.ar    
  34 H34           -0.9602     1.9069     0.0169 H       
  35 H35           -0.9288    -0.5516     0.0083 H       
  36 H36            1.2005    -1.7708    -0.0185 H       
  37 H37            1.1507     3.1715     0.0084 H       
  38 H38            5.7016    -0.6509    -0.0548 H       
  39 H39            6.3455     4.7653    -2.1620 H       
  40 H40            7.5753     6.8966    -2.1571 H       
  41 H41            8.0478     8.0441    -0.0323 H       
  42 H42            7.2938     7.0643     2.0956 H       
  43 H43            3.5477    -2.2230    -2.1784 H       
  44 H44            3.5023    -4.6812    -2.1868 H       
  45 H45            3.5094    -5.9289    -0.0680 H       
  46 H46            3.5575    -4.7275     2.0767 H       
  47 H47            1.9523    -3.1426     3.2920 H       
  48 H48            2.0044    -1.9292     5.4314 H       
  49 H49            3.6765    -0.1646     5.8090 H       
  50 H50            5.3033     0.3968     4.0509 H       
  51 H51            5.2700    -0.8102     1.9076 H       
@<TRIPOS>BOND
   1    1    2 ar
   2    1    6 ar
   3    1   34 1
   4    2    3 ar
   5    2   35 1
   6    3    4 ar
   7    3   36 1
   8    4    5 ar
   9    4    7 1
  10    5    6 ar
  11    5   10 1
  12    6   37 1
  13    7    8 1
  14    7   16 1
  15    8    9 2
  16    8   38 1
  17    9   10 1
  18    9   11 1
  19   10   13 2
  20   11   12 am
  21   11   15 2
  22   12   13 1
  23   12   14 1
  24   14   17 ar
  25   14   21 ar
  26   16   23 ar
  27   16   24 ar
  28   17   18 ar
  29   17   39 1
  30   18   19 ar
  31   18   40 1
  32   19   20 ar
  33   19   41 1
  34   20   21 ar
  35   20   42 1
  36   21   22 1
  37   23   28 1
  38   23   27 ar
  39   24   25 ar
  40   24   43 1
  41   25   26 ar
  42   25   44 1
  43   26   27 ar
  44   26   45 1
  45   27   46 1
  46   28   29 ar
  47   28   33 ar
  48   29   30 ar
  49   29   47 1
  50   30   31 ar
  51   30   48 1
  52   31   32 ar
  53   31   49 1
  54   32   33 ar
  55   32   50 1
  56   33   51 1

#	End of record

