#	Name: ASD06600080
#	Creating user name:	WinNT
#	Creation time:	15. 06. 2019 21:07

#	Modifying user name:	WinNT
#	Modification time:	15. 06. 2019 21:07

#	Program:	/corina/corina34_cracker 3.40 0067  02.08.2006

@<TRIPOS>MOLECULE
ASD06600080
 387  387    0    0    0
SMALL
NO_CHARGES


@<TRIPOS>ATOM
   1 C1           -11.5616    17.0303    18.7106 C.2     
   2 O2           -11.3647    15.8767    19.0291 O.2     
   3 N3            -9.5021    17.5026    19.9042 N.am    
   4 C4           -10.5900    18.1037    19.1287 C.3     
   5 C5           -14.3145    16.7478    16.3222 C.2     
   6 O6           -14.0703    17.8280    15.8278 O.2     
   7 N7           -12.6464    17.3514    17.9781 N.am    
   8 C8           -13.5877    16.3070    17.5666 C.3     
   9 C9           -14.5992    16.0614    18.6880 C.3     
  10 O10          -15.3942    17.2336    18.8776 O.3     
  11 C11          -16.9109    15.2958    14.1258 C.2     
  12 O12          -17.0019    14.2729    14.7710 O.2     
  13 N13          -15.2360    15.9416    15.7588 N.am    
  14 C14          -15.9426    16.3701    14.5491 C.3     
  15 C15          -18.8789    14.5416    11.1389 C.2     
  16 O16          -18.3329    15.4100    10.4918 O.2     
  17 N17          -17.6758    15.4717    13.0301 N.am    
  18 C18          -18.6172    14.4273    12.6186 C.3     
  19 C19          -19.9316    14.5953    13.3835 C.3     
  20 C20          -19.6880    14.3558    14.8749 C.3     
  21 C21          -21.0024    14.5237    15.6397 C.3     
  22 N22          -20.7691    14.2945    17.0677 N.pl3   
  23 C23          -21.8116    14.3914    17.9588 C.2     
  24 N24          -21.6041    14.1874    19.2293 N.2     
  25 N25          -23.0730    14.7034    17.5097 N.pl3   
  26 C26          -21.4258    13.2760     8.8565 C.2     
  27 O27          -21.8386    12.3622     9.5387 O.2     
  28 N28          -19.7197    13.6789    10.5347 N.am    
  29 C29          -20.0606    13.8568     9.1210 C.3     
  30 C30          -19.0246    13.1405     8.2525 C.3     
  31 C31          -19.2870    13.4581     6.7790 C.3     
  32 C32          -19.0322    14.9451     6.5246 C.3     
  33 C33          -18.3512    12.6230     5.9028 C.3     
  34 C34          -23.8242    13.4321     6.1022 C.2     
  35 O35          -23.0782    14.0985     5.4165 O.2     
  36 N36          -22.1880    13.7721     7.8618 N.am    
  37 C37          -23.4707    13.1427     7.5383 C.3     
  38 C38          -24.5597    13.7041     8.4547 C.3     
  39 C39          -24.2655    13.3029     9.9015 C.3     
  40 C40          -25.3545    13.8643    10.8179 C.3     
  41 N41          -25.0728    13.4801    12.2033 N.pl3   
  42 C42          -25.9205    13.8736    13.2117 C.2     
  43 N43          -26.9747    14.5884    12.9351 N.2     
  44 N44          -25.6561    13.5131    14.5118 N.pl3   
  45 C45          -26.8078    13.1523     4.0087 C.2     
  46 O46          -27.5163    12.8869     4.9566 O.2     
  47 N47          -24.9695    12.9504     5.5799 N.am    
  48 C48          -25.3132    13.2317     4.1838 C.3     
  49 C49          -24.6378    12.2027     3.2750 C.3     
  50 C50          -23.1190    12.3670     3.3590 C.3     
  51 C51          -22.4538    11.3535     2.4639 C.2     
  52 O52          -23.1281    10.5762     1.8219 O.2     
  53 N53          -21.1096    11.3107     2.3766 N.am    
  54 C54          -29.1313    12.9744     1.1921 C.2     
  55 O55          -28.2346    12.8223     0.3898 O.2     
  56 N56          -27.3573    13.3763     2.7986 N.am    
  57 C57          -28.8104    13.2992     2.6283 C.3     
  58 C58          -29.4395    14.6434     3.0000 C.3     
  59 C59          -32.1074    13.0414    -0.9295 C.2     
  60 O60          -32.7660    13.6086    -0.0836 O.2     
  61 N61          -30.4148    12.8529     0.7993 N.am    
  62 C62          -30.7268    12.5372    -0.5969 C.3     
  63 C63          -30.6743    11.0218    -0.8011 C.3     
  64 C64          -29.2427    10.5273    -0.5844 C.3     
  65 C65          -29.1910     9.0346    -0.7855 C.2     
  66 O66          -30.1999     8.4263    -1.0737 O.2     
  67 N67          -28.0237     8.3758    -0.6450 N.am    
  68 C68          -34.5199    12.5473    -3.6312 C.2     
  69 O69          -33.8673    11.6525    -4.1255 O.2     
  70 N70          -32.6104    12.8619    -2.1670 N.am    
  71 C71          -33.9526    13.3521    -2.4903 C.3     
  72 C72          -33.8737    14.8254    -2.8951 C.3     
  73 C73          -33.4158    15.6597    -1.6971 C.3     
  74 C74          -33.3370    17.1331    -2.1019 C.3     
  75 N75          -32.8986    17.9319    -0.9548 N.pl3   
  76 C76          -32.7537    19.2933    -1.0803 C.2     
  77 N77          -32.3637    20.0040    -0.0597 N.2     
  78 N78          -33.0203    19.9050    -2.2823 N.pl3   
  79 C79          -37.3366    12.8603    -5.9401 C.2     
  80 O80          -37.8732    13.7940    -5.3824 O.2     
  81 N81          -35.7524    12.8220    -4.1022 N.am    
  82 C82          -36.3039    12.0397    -5.2112 C.3     
  83 C83          -36.9562    10.7685    -4.6639 C.3     
  84 C84          -35.8820     9.8671    -4.0519 C.3     
  85 C85          -36.5343     8.5959    -3.5046 C.3     
  86 N86          -35.5058     7.7327    -2.9186 N.pl3   
  87 C87          -35.8571     6.5265    -2.3602 C.2     
  88 N88          -37.1052     6.1509    -2.3522 N.2     
  89 N89          -34.8919     5.7165    -1.8103 N.pl3   
  90 C90          -40.0495    13.0427    -7.3204 C.2     
  91 O91          -40.1216    12.4399    -6.2705 O.2     
  92 N92          -37.6638    12.5566    -7.2118 N.am    
  93 C93          -38.7169    13.2078    -8.0045 C.3     
  94 C94          -38.7458    12.5165    -9.3839 C.3     
  95 C95          -38.0915    11.1393    -9.0961 C.3     
  96 C96          -37.0207    11.5206    -8.0404 C.3     
  97 C97          -43.5605    13.4949    -8.2322 C.2     
  98 O98          -43.2916    13.6757    -9.4010 O.2     
  99 N99          -41.1611    13.5649    -7.8754 N.am    
 100 C100         -42.4566    13.4044    -7.2103 C.3     
 101 C101         -42.6350    14.5097    -6.1676 C.3     
 102 C102         -41.5896    14.3425    -5.0631 C.3     
 103 C103         -41.7653    15.4312    -4.0360 C.2     
 104 O104         -42.6406    16.2593    -4.1739 O.2     
 105 N105         -40.9499    15.4846    -2.9643 N.am    
 106 C106         -47.1919    13.9097    -8.1678 C.2     
 107 O107         -47.2012    14.1327    -6.9757 O.2     
 108 N108         -44.8465    13.3749    -7.8474 N.am    
 109 C109         -45.9197    13.4629    -8.8408 C.3     
 110 C110         -46.1362    12.0900    -9.4806 C.3     
 111 C111         -44.8867    11.6919   -10.2687 C.3     
 112 C112         -45.1032    10.3190   -10.9085 C.3     
 113 N113         -43.9068     9.9378   -11.6631 N.pl3   
 114 C114         -43.8679     8.7353   -12.3285 C.2     
 115 N115         -42.8034     8.3961   -12.9999 N.2     
 116 N116         -44.9517     7.8906   -12.2856 N.pl3   
 117 C117         -50.7413    14.0189    -9.0355 C.2     
 118 O118         -50.5699    13.3791   -10.0515 O.2     
 119 N119         -48.3192    14.0615    -8.8906 N.am    
 120 C120         -49.5559    14.4958    -8.2364 C.3     
 121 C121         -49.5790    16.0233    -8.1521 C.3     
 122 C122         -48.4485    16.5008    -7.2384 C.3     
 123 C123         -48.4712    18.0054    -7.1554 C.2     
 124 O124         -49.3091    18.6339    -7.7668 O.2     
 125 N125         -47.5603    18.6525    -6.4017 N.am    
 126 C126         -54.3240    14.7385    -9.1316 C.2     
 127 O127         -54.2133    15.6743    -8.3681 O.2     
 128 N128         -51.9918    14.3033    -8.6211 N.am    
 129 C129         -53.1441    13.8396    -9.3980 C.3     
 130 C130         -53.4918    12.4069    -8.9888 C.3     
 131 C131         -52.3423    11.4734    -9.3735 C.3     
 132 C132         -52.6900    10.0407    -8.9644 C.3     
 133 C133         -51.5404     9.1072    -9.3491 C.3     
 134 N134         -51.8743     7.7317    -8.9562 N.3     
 135 C135         -57.9262    14.6191    -9.7424 C.2     
 136 O136         -57.8824    13.4634   -10.1075 O.2     
 137 N137         -55.5023    14.5025    -9.7419 N.am    
 138 C138         -56.6493    15.3763    -9.4830 C.3     
 139 C139         -56.5817    16.5938   -10.4071 C.3     
 140 C140         -61.4586    15.4625   -10.1597 C.2     
 141 O141         -61.3056    16.6477    -9.9532 O.2     
 142 N142         -59.1168    15.2263    -9.5685 N.am    
 143 C143         -60.3582    14.4903    -9.8206 C.3     
 144 C144         -60.7447    13.6986    -8.5697 C.3     
 145 C145         -59.6954    12.6167    -8.3064 C.3     
 146 C146         -60.8145    14.6443    -7.3690 C.3     
 147 C147         -64.5287    16.0935    -9.6657 C.2     
 148 O148         -64.2115    15.4829    -8.6669 O.2     
 149 N149         -62.6127    15.0148   -10.6926 N.am    
 150 C150         -63.7199    15.9447   -10.9285 C.3     
 151 C151         -64.6133    15.4011   -12.0453 C.3     
 152 C152         -63.8265    15.3674   -13.3570 C.3     
 153 C153         -64.7200    14.8238   -14.4738 C.3     
 154 N154         -63.9666    14.7915   -15.7298 N.pl3   
 155 C155         -64.5670    14.3370   -16.8801 C.2     
 156 N156         -63.8967    14.3083   -17.9976 N.2     
 157 N157         -65.8744    13.9127   -16.8516 N.pl3   
 158 C158         -67.7971    17.4631    -8.7685 C.2     
 159 O159         -68.1105    17.6206    -9.9247 O.2     
 160 N160         -65.6045    16.9052    -9.6462 N.am    
 161 C161         -66.3907    17.0498    -8.4185 C.3     
 162 C162         -65.7526    18.1169    -7.5269 C.3     
 163 C163         -65.8335    19.4775    -8.2221 C.3     
 164 C164         -66.4995    18.1805    -6.1932 C.3     
 165 O165         -68.7016    17.6562    -7.7957 O.3     
 166 C166          -8.5099    18.2772    20.3859 C.2     
 167 O167          -8.5177    19.4719    20.1773 O.2     
 168 C168           7.4673    20.8929    29.8238 C.3     
 169 C169           6.3312    21.5207    29.0139 C.3     
 170 C170           5.3447    20.4309    28.5895 C.3     
 171 C171           4.2086    21.0587    27.7796 C.3     
 172 C172           3.2221    19.9689    27.3551 C.3     
 173 C173           2.0860    20.5967    26.5453 C.3     
 174 C174           1.0995    19.5069    26.1208 C.3     
 175 C175          -0.0366    20.1347    25.3109 C.3     
 176 C176          -1.0231    19.0449    24.8865 C.3     
 177 C177          -2.1592    19.6727    24.0766 C.3     
 178 C178          -3.1457    18.5828    23.6522 C.3     
 179 C179          -4.2818    19.2107    22.8423 C.3     
 180 C180          -5.2683    18.1208    22.4179 C.3     
 181 C181          -6.4044    18.7486    21.6080 C.3     
 182 C182          -7.3909    17.6588    21.1836 C.3     
 183 H183          -9.4958    16.5470    20.0709 H       
 184 H184         -10.1799    18.5878    18.2423 H       
 185 H185         -11.1067    18.8432    19.7404 H       
 186 H186         -12.8039    18.2740    17.7234 H       
 187 H187         -13.0418    15.3861    17.3616 H       
 188 H188         -15.2439    15.2247    18.4190 H       
 189 H189         -14.0686    15.8290    19.6114 H       
 190 H190         -16.0587    17.1496    19.5750 H       
 191 H191         -15.4314    15.0777    16.1542 H       
 192 H192         -15.2220    16.5451    13.7502 H       
 193 H193         -16.4885    17.2910    14.7541 H       
 194 H194         -17.6031    16.2898    12.5141 H       
 195 H195         -18.1918    13.4479    12.8377 H       
 196 H196         -20.3117    15.6060    13.2351 H       
 197 H197         -20.6614    13.8748    13.0143 H       
 198 H198         -19.3078    13.3451    15.0232 H       
 199 H199         -18.9581    15.0763    15.2441 H       
 200 H200         -21.3825    15.5345    15.4914 H       
 201 H201         -21.7322    13.8032    15.2705 H       
 202 H202         -19.8791    14.0743    17.3846 H       
 203 H203         -22.3396    14.2557    19.8580 H       
 204 H204         -23.2274    14.8553    16.5642 H       
 205 H205         -23.8085    14.7718    18.1384 H       
 206 H206         -20.0992    12.9401    11.0358 H       
 207 H207         -20.0649    14.9197     8.8793 H       
 208 H208         -18.0251    13.4797     8.5249 H       
 209 H209         -19.0989    12.0646     8.4111 H       
 210 H210         -20.3223    13.2198     6.5348 H       
 211 H211         -19.2714    15.1825     5.4880 H       
 212 H212         -19.6601    15.5400     7.1878 H       
 213 H213         -17.9835    15.1721     6.7166 H       
 214 H214         -18.5328    11.5636     6.0841 H       
 215 H215         -18.5382    12.8492     4.8530 H       
 216 H216         -17.3160    12.8612     6.1470 H       
 217 H217         -21.8872    14.5459     7.3601 H       
 218 H218         -23.3935    12.0652     7.6834 H       
 219 H219         -24.5767    14.7910     8.3753 H       
 220 H220         -25.5282    13.3028     8.1561 H       
 221 H221         -24.2486    12.2159     9.9809 H       
 222 H222         -23.2970    13.7042    10.2001 H       
 223 H223         -25.3715    14.9512    10.7385 H       
 224 H224         -26.3230    13.4630    10.5194 H       
 225 H225         -24.2882    12.9482    12.4092 H       
 226 H226         -27.5728    14.8660    13.6466 H       
 227 H227         -24.8715    12.9812    14.7177 H       
 228 H228         -26.2541    13.7908    15.2233 H       
 229 H229         -25.5662    12.4174     6.1283 H       
 230 H230         -24.9689    14.2315     3.9193 H       
 231 H231         -24.9129    11.1981     3.5964 H       
 232 H232         -24.9637    12.3571     2.2464 H       
 233 H233         -22.8439    13.3716     3.0376 H       
 234 H234         -22.7932    12.2126     4.3876 H       
 235 H235         -20.5702    11.9324     2.8900 H       
 236 H236         -20.6814    10.6584     1.8005 H       
 237 H237         -26.7908    13.5886     2.0404 H       
 238 H238         -29.2111    12.5191     3.2755 H       
 239 H239         -29.0387    15.4235     2.3528 H       
 240 H240         -30.5206    14.5860     2.8733 H       
 241 H241         -29.2074    14.8783     4.0388 H       
 242 H242         -31.1320    12.9746     1.4409 H       
 243 H243         -29.9976    13.0172    -1.2496 H       
 244 H244         -31.3387    10.5357    -0.0866 H       
 245 H245         -30.9924    10.7806    -1.8153 H       
 246 H246         -28.5783    11.0134    -1.2988 H       
 247 H247         -28.9246    10.7685     0.4299 H       
 248 H248         -27.2168     8.8623    -0.4145 H       
 249 H249         -27.9904     7.4150    -0.7745 H       
 250 H250         -32.0837    12.4083    -2.8435 H       
 251 H251         -34.5970    13.2491    -1.6173 H       
 252 H252         -33.1607    14.9402    -3.7116 H       
 253 H253         -34.8566    15.1659    -3.2206 H       
 254 H254         -34.1288    15.5449    -0.8807 H       
 255 H255         -32.4329    15.3192    -1.3716 H       
 256 H256         -32.6240    17.2479    -2.9184 H       
 257 H257         -34.3199    17.4736    -2.4274 H       
 258 H258         -32.7105    17.5003    -0.1067 H       
 259 H259         -32.2615    20.9646    -0.1482 H       
 260 H260         -33.3106    19.3761    -3.0419 H       
 261 H261         -32.9181    20.8656    -2.3709 H       
 262 H262         -36.2743    13.5377    -3.7068 H       
 263 H263         -35.5027    11.7697    -5.8992 H       
 264 H264         -37.6859    11.0348    -3.8992 H       
 265 H265         -37.4564    10.2388    -5.4746 H       
 266 H266         -35.1523     9.6007    -4.8166 H       
 267 H267         -35.3819    10.3968    -3.2412 H       
 268 H268         -37.2640     8.8622    -2.7399 H       
 269 H269         -37.0345     8.0661    -4.3153 H       
 270 H270         -34.5770     8.0123    -2.9245 H       
 271 H271         -37.3530     5.2998    -1.9583 H       
 272 H272         -33.9630     5.9960    -1.8162 H       
 273 H273         -35.1397     4.8654    -1.4163 H       
 274 H274         -38.4900    14.2674    -8.1230 H       
 275 H275         -39.7714    12.3912    -9.7311 H       
 276 H276         -38.1579    13.0787   -10.1095 H       
 277 H277         -38.8189    10.4396    -8.6846 H       
 278 H278         -37.6253    10.7331    -9.9938 H       
 279 H279         -36.1313    11.9217    -8.5265 H       
 280 H280         -36.7631    10.6538    -7.4318 H       
 281 H281         -41.1035    14.0471    -8.7151 H       
 282 H282         -42.4949    12.4320    -6.7193 H       
 283 H283         -42.5084    15.4821    -6.6436 H       
 284 H284         -43.6336    14.4439    -5.7357 H       
 285 H285         -41.7162    13.3701    -4.5871 H       
 286 H286         -40.5910    14.4082    -5.4950 H       
 287 H287         -40.2498    14.8222    -2.8540 H       
 288 H288         -41.0630    16.1853    -2.3032 H       
 289 H289         -45.0616    13.2303    -6.9127 H       
 290 H290         -45.6437    14.1832    -9.6110 H       
 291 H291         -46.3248    11.3517    -8.7013 H       
 292 H292         -46.9920    12.1340   -10.1543 H       
 293 H293         -44.6980    12.4302   -11.0480 H       
 294 H294         -44.0309    11.6479    -9.5951 H       
 295 H295         -45.2918     9.5807   -10.1292 H       
 296 H296         -45.9590    10.3630   -11.5822 H       
 297 H297         -43.1420    10.5338   -11.6934 H       
 298 H298         -42.7759     7.5477   -13.4693 H       
 299 H299         -45.7439     8.1430   -11.7860 H       
 300 H300         -44.9243     7.0422   -12.7551 H       
 301 H301         -48.3117    13.8831    -9.8441 H       
 302 H302         -49.6023    14.0758    -7.2316 H       
 303 H303         -49.4433    16.4443    -9.1484 H       
 304 H304         -50.5365    16.3504    -7.7467 H       
 305 H305         -48.5841    16.0799    -6.2422 H       
 306 H306         -47.4910    16.1737    -7.6438 H       
 307 H307         -46.8902    18.1499    -5.9127 H       
 308 H308         -47.5749    19.6209    -6.3483 H       
 309 H309         -52.1289    14.8149    -7.8085 H       
 310 H310         -52.9003    13.8652   -10.4600 H       
 311 H311         -53.6489    12.3648    -7.9110 H       
 312 H312         -54.4014    12.0934    -9.5011 H       
 313 H313         -52.1852    11.5155   -10.4513 H       
 314 H314         -51.4327    11.7869    -8.8612 H       
 315 H315         -52.8471     9.9986    -7.8866 H       
 316 H316         -53.5996     9.7272    -9.4767 H       
 317 H317         -51.3833     9.1493   -10.4269 H       
 318 H318         -50.6308     9.4208    -8.8368 H       
 319 H319         -51.1301     7.0953    -9.1998 H       
 320 H320         -52.0877     7.6785    -7.9715 H       
 321 H321         -55.5908    13.7540   -10.3526 H       
 322 H322         -56.6272    15.7066    -8.4445 H       
 323 H323         -55.6581    17.1415   -10.2195 H       
 324 H324         -56.6037    16.2635   -11.4456 H       
 325 H325         -57.4351    17.2440   -10.2145 H       
 326 H326         -59.1518    16.1507    -9.2765 H       
 327 H327         -60.2105    13.8035   -10.6540 H       
 328 H328         -61.7178    13.2317    -8.7215 H       
 329 H329         -58.7481    13.0861    -8.0411 H       
 330 H330         -60.0277    11.9801    -7.4864 H       
 331 H331         -59.5628    12.0130    -9.2042 H       
 332 H332         -61.5620    15.4151    -7.5565 H       
 333 H333         -61.0898    14.0803    -6.4778 H       
 334 H334         -59.8413    15.1112    -7.2172 H       
 335 H335         -62.7103    14.0768   -10.9199 H       
 336 H336         -63.3221    16.9162   -11.2218 H       
 337 H337         -64.9395    14.3926   -11.7912 H       
 338 H338         -65.4842    16.0464   -12.1604 H       
 339 H339         -63.5004    16.3760   -13.6111 H       
 340 H340         -62.9557    14.7221   -13.2419 H       
 341 H341         -65.0461    13.8153   -14.2197 H       
 342 H342         -65.5908    15.4691   -14.5890 H       
 343 H343         -63.0442    15.0909   -15.7499 H       
 344 H344         -64.3204    13.9876   -18.8091 H       
 345 H345         -66.3733    13.9341   -16.0199 H       
 346 H346         -66.2981    13.5920   -17.6631 H       
 347 H347         -65.8581    17.3935   -10.4450 H       
 348 H348         -66.4132    16.0984    -7.8872 H       
 349 H349         -64.7081    17.8626    -7.3467 H       
 350 H350         -66.8780    19.7318    -8.4024 H       
 351 H351         -65.3789    20.2377    -7.5870 H       
 352 H352         -65.3014    19.4322    -9.1723 H       
 353 H353         -66.4418    17.2112    -5.6979 H       
 354 H354         -66.0448    18.9407    -5.5580 H       
 355 H355         -67.5440    18.4348    -6.3734 H       
 356 H356         -69.5907    17.9206    -8.0691 H       
 357 H357           8.1701    21.6693    30.1262 H       
 358 H358           7.0573    20.4087    30.7101 H       
 359 H359           7.9840    20.1533    29.2120 H       
 360 H360           5.8145    22.2602    29.6256 H       
 361 H361           6.7412    22.0048    28.1276 H       
 362 H362           5.8614    19.6913    27.9777 H       
 363 H363           4.9347    19.9467    29.4758 H       
 364 H364           3.6919    21.7982    28.3913 H       
 365 H365           4.6186    21.5428    26.8932 H       
 366 H366           3.7388    19.2293    26.7434 H       
 367 H367           2.8121    19.4847    28.2415 H       
 368 H368           1.5693    21.3362    27.1570 H       
 369 H369           2.4960    21.0808    25.6589 H       
 370 H370           1.6162    18.7673    25.5091 H       
 371 H371           0.6895    19.0227    27.0072 H       
 372 H372          -0.5533    20.8742    25.9227 H       
 373 H373           0.3734    20.6188    24.4246 H       
 374 H374          -0.5064    18.3053    24.2748 H       
 375 H375          -1.4331    18.5607    25.7728 H       
 376 H376          -2.6759    20.4122    24.6884 H       
 377 H377          -1.7492    20.1568    23.1903 H       
 378 H378          -2.6290    17.8433    23.0405 H       
 379 H379          -3.5557    18.0987    24.5385 H       
 380 H380          -4.7985    19.9502    23.4540 H       
 381 H381          -3.8718    19.6948    21.9560 H       
 382 H382          -4.7516    17.3813    21.8061 H       
 383 H383          -5.6783    17.6367    23.3042 H       
 384 H384          -6.9211    19.4882    22.2197 H       
 385 H385          -5.9944    19.2328    20.7217 H       
 386 H386          -7.8009    17.1747    22.0699 H       
 387 H387          -6.8742    16.9193    20.5718 H       
@<TRIPOS>BOND
   1    1    2 2
   2    1    4 1
   3    1    7 am
   4    3    4 1
   5    3  166 am
   6    3  183 1
   7    4  184 1
   8    4  185 1
   9    5    6 2
  10    5    8 1
  11    5   13 am
  12    7    8 1
  13    7  186 1
  14    8    9 1
  15    8  187 1
  16    9   10 1
  17    9  188 1
  18    9  189 1
  19   10  190 1
  20   11   12 2
  21   11   14 1
  22   11   17 am
  23   13   14 1
  24   13  191 1
  25   14  192 1
  26   14  193 1
  27   15   16 2
  28   15   18 1
  29   15   28 am
  30   17   18 1
  31   17  194 1
  32   18   19 1
  33   18  195 1
  34   19   20 1
  35   19  196 1
  36   19  197 1
  37   20   21 1
  38   20  198 1
  39   20  199 1
  40   21   22 1
  41   21  200 1
  42   21  201 1
  43   22   23 1
  44   22  202 1
  45   23   24 2
  46   23   25 1
  47   24  203 1
  48   25  204 1
  49   25  205 1
  50   26   27 2
  51   26   29 1
  52   26   36 am
  53   28   29 1
  54   28  206 1
  55   29   30 1
  56   29  207 1
  57   30   31 1
  58   30  208 1
  59   30  209 1
  60   31   32 1
  61   31   33 1
  62   31  210 1
  63   32  211 1
  64   32  212 1
  65   32  213 1
  66   33  214 1
  67   33  215 1
  68   33  216 1
  69   34   35 2
  70   34   37 1
  71   34   47 am
  72   36   37 1
  73   36  217 1
  74   37   38 1
  75   37  218 1
  76   38   39 1
  77   38  219 1
  78   38  220 1
  79   39   40 1
  80   39  221 1
  81   39  222 1
  82   40   41 1
  83   40  223 1
  84   40  224 1
  85   41   42 1
  86   41  225 1
  87   42   43 2
  88   42   44 1
  89   43  226 1
  90   44  227 1
  91   44  228 1
  92   45   46 2
  93   45   48 1
  94   45   56 am
  95   47   48 1
  96   47  229 1
  97   48   49 1
  98   48  230 1
  99   49   50 1
 100   49  231 1
 101   49  232 1
 102   50   51 1
 103   50  233 1
 104   50  234 1
 105   51   52 2
 106   51   53 am
 107   53  235 1
 108   53  236 1
 109   54   55 2
 110   54   57 1
 111   54   61 am
 112   56   57 1
 113   56  237 1
 114   57   58 1
 115   57  238 1
 116   58  239 1
 117   58  240 1
 118   58  241 1
 119   59   60 2
 120   59   62 1
 121   59   70 am
 122   61   62 1
 123   61  242 1
 124   62   63 1
 125   62  243 1
 126   63   64 1
 127   63  244 1
 128   63  245 1
 129   64   65 1
 130   64  246 1
 131   64  247 1
 132   65   66 2
 133   65   67 am
 134   67  248 1
 135   67  249 1
 136   68   69 2
 137   68   71 1
 138   68   81 am
 139   70   71 1
 140   70  250 1
 141   71   72 1
 142   71  251 1
 143   72   73 1
 144   72  252 1
 145   72  253 1
 146   73   74 1
 147   73  254 1
 148   73  255 1
 149   74   75 1
 150   74  256 1
 151   74  257 1
 152   75   76 1
 153   75  258 1
 154   76   77 2
 155   76   78 1
 156   77  259 1
 157   78  260 1
 158   78  261 1
 159   79   80 2
 160   79   82 1
 161   79   92 am
 162   81   82 1
 163   81  262 1
 164   82   83 1
 165   82  263 1
 166   83   84 1
 167   83  264 1
 168   83  265 1
 169   84   85 1
 170   84  266 1
 171   84  267 1
 172   85   86 1
 173   85  268 1
 174   85  269 1
 175   86   87 1
 176   86  270 1
 177   87   88 2
 178   87   89 1
 179   88  271 1
 180   89  272 1
 181   89  273 1
 182   90   91 2
 183   90   99 am
 184   90   93 1
 185   92   93 1
 186   92   96 1
 187   93   94 1
 188   93  274 1
 189   94   95 1
 190   94  275 1
 191   94  276 1
 192   95   96 1
 193   95  277 1
 194   95  278 1
 195   96  279 1
 196   96  280 1
 197   97   98 2
 198   97  100 1
 199   97  108 am
 200   99  100 1
 201   99  281 1
 202  100  101 1
 203  100  282 1
 204  101  102 1
 205  101  283 1
 206  101  284 1
 207  102  103 1
 208  102  285 1
 209  102  286 1
 210  103  104 2
 211  103  105 am
 212  105  287 1
 213  105  288 1
 214  106  107 2
 215  106  109 1
 216  106  119 am
 217  108  109 1
 218  108  289 1
 219  109  110 1
 220  109  290 1
 221  110  111 1
 222  110  291 1
 223  110  292 1
 224  111  112 1
 225  111  293 1
 226  111  294 1
 227  112  113 1
 228  112  295 1
 229  112  296 1
 230  113  114 1
 231  113  297 1
 232  114  115 2
 233  114  116 1
 234  115  298 1
 235  116  299 1
 236  116  300 1
 237  117  118 2
 238  117  120 1
 239  117  128 am
 240  119  120 1
 241  119  301 1
 242  120  121 1
 243  120  302 1
 244  121  122 1
 245  121  303 1
 246  121  304 1
 247  122  123 1
 248  122  305 1
 249  122  306 1
 250  123  124 2
 251  123  125 am
 252  125  307 1
 253  125  308 1
 254  126  127 2
 255  126  129 1
 256  126  137 am
 257  128  129 1
 258  128  309 1
 259  129  130 1
 260  129  310 1
 261  130  131 1
 262  130  311 1
 263  130  312 1
 264  131  132 1
 265  131  313 1
 266  131  314 1
 267  132  133 1
 268  132  315 1
 269  132  316 1
 270  133  134 1
 271  133  317 1
 272  133  318 1
 273  134  319 1
 274  134  320 1
 275  135  136 2
 276  135  138 1
 277  135  142 am
 278  137  138 1
 279  137  321 1
 280  138  139 1
 281  138  322 1
 282  139  323 1
 283  139  324 1
 284  139  325 1
 285  140  141 2
 286  140  143 1
 287  140  149 am
 288  142  143 1
 289  142  326 1
 290  143  144 1
 291  143  327 1
 292  144  145 1
 293  144  146 1
 294  144  328 1
 295  145  329 1
 296  145  330 1
 297  145  331 1
 298  146  332 1
 299  146  333 1
 300  146  334 1
 301  147  148 2
 302  147  150 1
 303  147  160 am
 304  149  150 1
 305  149  335 1
 306  150  151 1
 307  150  336 1
 308  151  152 1
 309  151  337 1
 310  151  338 1
 311  152  153 1
 312  152  339 1
 313  152  340 1
 314  153  154 1
 315  153  341 1
 316  153  342 1
 317  154  155 1
 318  154  343 1
 319  155  156 2
 320  155  157 1
 321  156  344 1
 322  157  345 1
 323  157  346 1
 324  158  159 2
 325  158  161 1
 326  158  165 1
 327  160  161 1
 328  160  347 1
 329  161  162 1
 330  161  348 1
 331  162  163 1
 332  162  164 1
 333  162  349 1
 334  163  350 1
 335  163  351 1
 336  163  352 1
 337  164  353 1
 338  164  354 1
 339  164  355 1
 340  165  356 1
 341  166  167 2
 342  166  182 1
 343  168  169 1
 344  168  357 1
 345  168  358 1
 346  168  359 1
 347  169  170 1
 348  169  360 1
 349  169  361 1
 350  170  171 1
 351  170  362 1
 352  170  363 1
 353  171  172 1
 354  171  364 1
 355  171  365 1
 356  172  173 1
 357  172  366 1
 358  172  367 1
 359  173  174 1
 360  173  368 1
 361  173  369 1
 362  174  175 1
 363  174  370 1
 364  174  371 1
 365  175  176 1
 366  175  372 1
 367  175  373 1
 368  176  177 1
 369  176  374 1
 370  176  375 1
 371  177  178 1
 372  177  376 1
 373  177  377 1
 374  178  179 1
 375  178  378 1
 376  178  379 1
 377  179  180 1
 378  179  380 1
 379  179  381 1
 380  180  181 1
 381  180  382 1
 382  180  383 1
 383  181  182 1
 384  181  384 1
 385  181  385 1
 386  182  386 1
 387  182  387 1

#	End of record

