#	Name: ASD01882099
#	Creating user name:	WinNT
#	Creation time:	15. 06. 2019 19:43

#	Modifying user name:	WinNT
#	Modification time:	15. 06. 2019 19:43

#	Program:	/corina/corina34_cracker 3.40 0067  02.08.2006

@<TRIPOS>MOLECULE
ASD01882099
  52   56    0    0    0
SMALL
NO_CHARGES


@<TRIPOS>ATOM
   1 C1            -1.0157    -0.2192     0.6942 C.2     
   2 C2            -0.1119    -0.1086    -0.3414 C.2     
   3 C3            -0.4286     0.7008    -1.4531 C.2     
   4 C4            -1.6034     1.3583    -1.5003 C.2     
   5 N5            -2.5052     1.2560    -0.4800 N.pl3   
   6 C6            -2.2371     0.4752     0.6146 C.2     
   7 C7            -3.7454     1.8090    -0.2824 C.2     
   8 C8            -4.1948     1.3650     0.9102 C.2     
   9 N9            -3.2717     0.5578     1.4414 N.2     
  10 N10            1.1024    -0.7890    -0.2903 N.pl3   
  11 Cl11          -0.6545    -1.2078     2.0747 Cl      
  12 C12           -4.4702     2.7385    -1.2215 C.3     
  13 C13            1.1336    -2.2575    -0.2846 C.3     
  14 C14            2.0127    -2.7365    -1.4461 C.3     
  15 C15            3.3667    -2.0350    -1.3706 C.3     
  16 C16            3.2571    -0.5125    -1.4030 C.3     
  17 C17            2.3700    -0.0482    -0.2475 C.3     
  18 C18            4.2688    -2.5617    -0.2457 C.3     
  19 N19            5.3701    -2.4841    -1.2320 N.3     
  20 C20            4.4060    -2.5975    -2.3498 C.3     
  21 C21            6.1876    -3.6143    -1.1594 C.ar    
  22 C22            7.5681    -3.4722    -1.1000 C.ar    
  23 C23            5.6216    -4.8827    -1.1408 C.ar    
  24 C24            6.4328    -5.9981    -1.0691 C.ar    
  25 C25            7.8070    -5.8533    -1.0153 C.ar    
  26 C26            8.3735    -4.5918    -1.0283 C.ar    
  27 C27           -4.2051     4.1880    -0.8099 C.3     
  28 F28           -2.8311     4.4452    -0.8673 F       
  29 F29           -4.8779     5.0508    -1.6817 F       
  30 F30           -4.6638     4.3934     0.4958 F       
  31 H31            0.2733     0.7936    -2.2687 H       
  32 H32           -1.8350     1.9749    -2.3563 H       
  33 H33           -5.1439     1.6177     1.3593 H       
  34 H34           -4.1128     2.5785    -2.2387 H       
  35 H35           -5.5407     2.5380    -1.1767 H       
  36 H36            1.5502    -2.6105     0.6588 H       
  37 H37            0.1223    -2.6450    -0.4078 H       
  38 H38            2.1564    -3.8146    -1.3738 H       
  39 H39            1.5294    -2.4949    -2.3927 H       
  40 H40            4.2496    -0.0735    -1.3012 H       
  41 H41            2.8140    -0.1991    -2.3482 H       
  42 H42            2.1738     1.0197    -0.3437 H       
  43 H43            2.8709    -0.2459     0.7001 H       
  44 H44            4.3778    -1.8707     0.5902 H       
  45 H45            4.0312    -3.5779     0.0688 H       
  46 H46            4.2090    -3.6244    -2.6578 H       
  47 H47            4.6243    -1.9351    -3.1874 H       
  48 H48            8.0112    -2.4873    -1.1101 H       
  49 H49            4.5484    -4.9965    -1.1821 H       
  50 H50            5.9934    -6.9846    -1.0546 H       
  51 H51            8.4390    -6.7272    -0.9585 H       
  52 H52            9.4471    -4.4822    -0.9862 H       
@<TRIPOS>BOND
   1    1    2 2
   2    1   11 1
   3    1    6 1
   4    2    3 1
   5    2   10 1
   6    3    4 2
   7    3   31 1
   8    4    5 1
   9    4   32 1
  10    5    6 1
  11    5    7 1
  12    6    9 2
  13    7    8 2
  14    7   12 1
  15    8    9 1
  16    8   33 1
  17   10   13 1
  18   10   17 1
  19   12   27 1
  20   12   34 1
  21   12   35 1
  22   13   14 1
  23   13   36 1
  24   13   37 1
  25   14   15 1
  26   14   38 1
  27   14   39 1
  28   15   16 1
  29   15   18 1
  30   15   20 1
  31   16   17 1
  32   16   40 1
  33   16   41 1
  34   17   42 1
  35   17   43 1
  36   18   19 1
  37   18   44 1
  38   18   45 1
  39   19   20 1
  40   19   21 1
  41   20   46 1
  42   20   47 1
  43   21   22 ar
  44   21   23 ar
  45   22   26 ar
  46   22   48 1
  47   23   24 ar
  48   23   49 1
  49   24   25 ar
  50   24   50 1
  51   25   26 ar
  52   25   51 1
  53   26   52 1
  54   27   28 1
  55   27   29 1
  56   27   30 1

#	End of record

