#	Name: ASD01180068
#	Creating user name:	WinNT
#	Creation time:	15. 06. 2019 19:06

#	Modifying user name:	WinNT
#	Modification time:	15. 06. 2019 19:06

#	Program:	/corina/corina34_cracker 3.40 0067  02.08.2006

@<TRIPOS>MOLECULE
ASD01180068
  60   62    0    0    0
SMALL
NO_CHARGES


@<TRIPOS>ATOM
   1 C1             1.0396     1.5435    -0.7631 C.2     
   2 C2             0.9144     0.0453    -0.6587 C.3     
   3 C3             2.3050    -0.5888    -0.7288 C.3     
   4 O4             2.1293     2.0518    -0.8814 O.2     
   5 O5            -0.0598     2.3128    -0.7302 O.3     
   6 C6             3.2867    -2.8181    -0.6659 C.2     
   7 C7             3.1638    -4.2878    -0.5635 C.ar    
   8 C8             4.3046    -5.0910    -0.6031 C.ar    
   9 C9             4.1830    -6.4619    -0.5065 C.ar    
  10 C10            2.9337    -7.0408    -0.3711 C.ar    
  11 C11            1.7988    -6.2503    -0.3312 C.ar    
  12 C12            1.9069    -4.8779    -0.4209 C.ar    
  13 O13            4.3830    -2.3067    -0.7849 O.2     
  14 N14            2.1832    -2.0452    -0.6273 N.am    
  15 C15            2.8084    -8.5389    -0.2672 C.3     
  16 C16            2.6292    -8.9352     1.1997 C.3     
  17 C17            3.9027    -8.5987     1.9780 C.3     
  18 C18            3.6761    -8.8669     3.4672 C.3     
  19 N19            1.6466    -8.9865    -1.0394 N.pl3   
  20 N20            0.5357   -11.8483    -2.9765 N.ar    
  21 C21            0.5797   -10.6552    -2.4385 C.ar    
  22 C22            1.6299   -10.2671    -1.5971 C.ar    
  23 C23            2.6496   -11.1580    -1.3221 C.ar    
  24 C24            2.5872   -12.4352    -1.9084 C.ar    
  25 C25            3.5867   -13.3940    -1.6755 C.ar    
  26 C26            3.4925   -14.6200    -2.2602 C.ar    
  27 C27            2.4169   -14.9364    -3.0872 C.ar    
  28 C28            1.4308   -14.0314    -3.3345 C.ar    
  29 C29            1.4919   -12.7546    -2.7494 C.ar    
  30 C30           -0.5273    -9.6756    -2.7317 C.3     
  31 C31            5.0546    -9.4696     1.4725 C.3     
  32 H32            0.4438    -0.2147     0.2895 H       
  33 H33            0.3036    -0.3264    -1.4815 H       
  34 H34            2.7756    -0.3288    -1.6769 H       
  35 H35            2.9157    -0.2171     0.0940 H       
  36 H36            0.0707     3.2684    -0.8006 H       
  37 H37            5.2803    -4.6404    -0.7095 H       
  38 H38            5.0649    -7.0845    -0.5371 H       
  39 H39            0.8265    -6.7084    -0.2253 H       
  40 H40            1.0207    -4.2617    -0.3851 H       
  41 H41            1.3084    -2.4533    -0.5323 H       
  42 H42            3.7097    -9.0072    -0.6626 H       
  43 H43            1.7883    -8.3867     1.6241 H       
  44 H44            2.4352   -10.0058     1.2657 H       
  45 H45            4.1508    -7.5474     1.8319 H       
  46 H46            3.4280    -9.9182     3.6134 H       
  47 H47            4.5834    -8.6272     4.0217 H       
  48 H48            2.8555    -8.2465     3.8274 H       
  49 H49            0.8890    -8.3936    -1.1633 H       
  50 H50            3.4703   -10.8819    -0.6767 H       
  51 H51            4.4254   -13.1600    -1.0366 H       
  52 H52            4.2617   -15.3566    -2.0809 H       
  53 H53            2.3649   -15.9156    -3.5397 H       
  54 H54            0.6039   -14.2935    -3.9779 H       
  55 H55           -1.3171    -9.7869    -1.9889 H       
  56 H56           -0.1332    -8.6600    -2.6937 H       
  57 H57           -0.9321    -9.8713    -3.7246 H       
  58 H58            5.2782    -9.2112     0.4374 H       
  59 H59            5.9372    -9.2981     2.0886 H       
  60 H60            4.7689   -10.5199     1.5312 H       
@<TRIPOS>BOND
   1    1    2 1
   2    1    4 2
   3    1    5 1
   4    2    3 1
   5    2   32 1
   6    2   33 1
   7    3   14 1
   8    3   34 1
   9    3   35 1
  10    5   36 1
  11    6    7 1
  12    6   13 2
  13    6   14 am
  14    7    8 ar
  15    7   12 ar
  16    8    9 ar
  17    8   37 1
  18    9   10 ar
  19    9   38 1
  20   10   11 ar
  21   10   15 1
  22   11   12 ar
  23   11   39 1
  24   12   40 1
  25   14   41 1
  26   15   16 1
  27   15   19 1
  28   15   42 1
  29   16   17 1
  30   16   43 1
  31   16   44 1
  32   17   18 1
  33   17   31 1
  34   17   45 1
  35   18   46 1
  36   18   47 1
  37   18   48 1
  38   19   22 1
  39   19   49 1
  40   20   21 ar
  41   20   29 ar
  42   21   22 ar
  43   21   30 1
  44   22   23 ar
  45   23   24 ar
  46   23   50 1
  47   24   25 ar
  48   24   29 ar
  49   25   26 ar
  50   25   51 1
  51   26   27 ar
  52   26   52 1
  53   27   28 ar
  54   27   53 1
  55   28   29 ar
  56   28   54 1
  57   30   55 1
  58   30   56 1
  59   30   57 1
  60   31   58 1
  61   31   59 1
  62   31   60 1

#	End of record

