#	Name: ASD04570032
#	Creating user name:	WinNT
#	Creation time:	15. 06. 2019 20:49

#	Modifying user name:	WinNT
#	Modification time:	15. 06. 2019 20:49

#	Program:	/corina/corina34_cracker 3.40 0067  02.08.2006

@<TRIPOS>MOLECULE
ASD04570032
 344  344    0    0    0
SMALL
NO_CHARGES


@<TRIPOS>ATOM
   1 C1            -0.0187     1.5258     0.0104 C.3     
   2 C2             0.0021    -0.0041     0.0020 C.3     
   3 C3            -1.4333    -0.5336     0.0129 C.3     
   4 C4            -1.4126    -2.0635     0.0045 C.3     
   5 C5            -2.8479    -2.5931     0.0153 C.3     
   6 C6            -2.8272    -4.1229     0.0069 C.3     
   7 C7            -4.2626    -4.6525     0.0178 C.3     
   8 C8            -4.2418    -6.1823     0.0094 C.3     
   9 C9            -5.6772    -6.7119     0.0202 C.3     
  10 C10           -5.6565    -8.2417     0.0118 C.3     
  11 C11           -7.0918    -8.7713     0.0227 C.3     
  12 C12           -7.0711   -10.3012     0.0143 C.3     
  13 C13           -8.5065   -10.8307     0.0251 C.3     
  14 C14           -8.4857   -12.3606     0.0167 C.3     
  15 C15           -9.8995   -12.8822     0.0274 C.2     
  16 N16          -10.1278   -14.2105     0.0224 N.am    
  17 O17          -10.8319   -12.1067     0.0405 O.2     
  18 C18          -11.5022   -14.7176     0.0328 C.3     
  19 C19          -11.5336   -16.0963    -0.5748 C.2     
  20 N20          -12.7005   -16.7638    -0.6713 N.am    
  21 O21          -10.5088   -16.6052    -0.9769 O.2     
  22 C22          -12.7310   -18.1041    -1.2620 C.3     
  23 C23          -14.1448   -18.6257    -1.2513 C.2     
  24 N24          -14.4156   -19.8487    -1.7486 N.am    
  25 O25          -15.0389   -17.9449    -0.7952 O.2     
  26 C26          -15.7900   -20.3558    -1.7382 C.3     
  27 C27          -15.9556   -21.3807    -2.8305 C.2     
  28 O28          -15.0179   -21.6600    -3.5472 O.2     
  29 N29          -17.1457   -21.9868    -3.0111 N.am    
  30 C30          -16.0848   -21.0025    -0.3832 C.3     
  31 C31          -16.0395   -19.9512     0.6956 C.ar    
  32 C32          -17.1883   -19.2607     1.0350 C.ar    
  33 C33          -17.3067   -22.9831    -4.0731 C.3     
  34 C34          -17.6323   -22.2763    -5.3904 C.3     
  35 C35          -18.4304   -23.9215    -3.7154 C.2     
  36 O36          -19.0370   -23.7727    -2.6758 O.2     
  37 N37          -18.7612   -24.9260    -4.5508 N.am    
  38 C38          -16.4394   -21.4187    -5.8174 C.3     
  39 C39          -16.7601   -20.7225    -7.1149 C.2     
  40 N40          -15.8505   -19.9079    -7.6853 N.am    
  41 C41          -19.8535   -25.8382    -4.2031 C.3     
  42 C42          -21.1862   -25.2292    -4.6434 C.3     
  43 C43          -19.6484   -27.1572    -4.9026 C.2     
  44 O44          -18.6847   -27.3193    -5.6208 O.2     
  45 N45          -20.5359   -28.1567    -4.7300 N.am    
  46 C46          -20.3365   -29.4389    -5.4100 C.3     
  47 C47          -21.0427   -30.5470    -4.6263 C.3     
  48 C48          -20.9101   -29.3640    -6.8016 C.2     
  49 C49          -20.3778   -30.7070    -3.2577 C.3     
  50 C50          -21.0840   -31.8152    -2.4740 C.3     
  51 C51          -12.0105   -14.7839     1.4744 C.3     
  52 C52          -12.0967   -13.3690     2.0504 C.3     
  53 O53          -12.5714   -13.4309     3.3968 O.3     
  54 C54          -12.6891   -12.1557     4.0308 C.3     
  55 C55          -17.1494   -18.2966     2.0236 C.ar    
  56 C56          -15.9564   -18.0214     2.6760 C.ar    
  57 C57          -14.8051   -18.7156     2.3336 C.ar    
  58 C58          -14.8505   -19.6828     1.3482 C.ar    
  59 O59          -15.9155   -17.0731     3.6486 O.3     
  60 O60          -17.8368   -20.8952    -7.6458 O.2     
  61 C61          -20.4190   -31.9752    -1.1053 C.3     
  62 N62          -21.0971   -33.0391    -0.3529 N.3     
  63 C63            1.4167     2.0553    -0.0004 C.3     
  64 H64           -9.3821   -14.8307     0.0120 H       
  65 C65          -21.4536   -23.9536    -3.8420 C.3     
  66 C66          -22.7863   -23.3446    -4.2823 C.3     
  67 C67          -23.0536   -22.0690    -3.4809 C.3     
  68 N68          -24.3332   -21.4843    -3.9037 N.3     
  69 O69          -21.6602   -28.4653    -7.0979 O.2     
  70 C70          -20.5474   -30.4106    -7.8234 C.3     
  71 H71           -0.5459     1.8868    -0.8726 H       
  72 H72           -0.5289     1.8773     0.9072 H       
  73 H73            0.5123    -0.3556    -0.8948 H       
  74 H74            0.5293    -0.3651     0.8851 H       
  75 H75           -1.9435    -0.1821     0.9097 H       
  76 H76           -1.9605    -0.1726    -0.8702 H       
  77 H77           -0.9024    -2.4150    -0.8923 H       
  78 H78           -0.8854    -2.4246     0.8875 H       
  79 H79           -3.3581    -2.2415     0.9121 H       
  80 H80           -3.3751    -2.2320    -0.8677 H       
  81 H81           -2.3170    -4.4744    -0.8899 H       
  82 H82           -2.3000    -4.4840     0.8900 H       
  83 H83           -4.7728    -4.3010     0.9146 H       
  84 H84           -4.7898    -4.2914    -0.8653 H       
  85 H85           -3.7316    -6.5338    -0.8874 H       
  86 H86           -3.7146    -6.5434     0.8924 H       
  87 H87           -6.1874    -6.3604     0.9170 H       
  88 H88           -6.2044    -6.3508    -0.8628 H       
  89 H89           -5.1463    -8.5933    -0.8850 H       
  90 H90           -5.1293    -8.6028     0.8949 H       
  91 H91           -7.6020    -8.4198     0.9195 H       
  92 H92           -7.6190    -8.4102    -0.8604 H       
  93 H93           -6.5609   -10.6527    -0.8825 H       
  94 H94           -6.5439   -10.6622     0.8973 H       
  95 H95           -9.0167   -10.4792     0.9219 H       
  96 H96           -9.0337   -10.4697    -0.8579 H       
  97 H97           -7.9755   -12.7121    -0.8801 H       
  98 H98           -7.9586   -12.7217     0.8998 H       
  99 H99          -12.1400   -14.0504    -0.5470 H       
 100 H100         -13.5201   -16.3567    -0.3497 H       
 101 H101         -12.3689   -18.0568    -2.2890 H       
 102 H102         -12.0931   -18.7712    -0.6822 H       
 103 H103         -13.7005   -20.3932    -2.1133 H       
 104 H104         -16.4828   -19.5311    -1.9056 H       
 105 H105         -17.8957   -21.7634    -2.4379 H       
 106 H106         -17.0749   -21.4577    -0.4056 H       
 107 H107         -15.3374   -21.7683    -0.1758 H       
 108 H108         -18.1167   -19.4750     0.5266 H       
 109 H109         -16.3818   -23.5492    -4.1834 H       
 110 H110         -17.8394   -23.0197    -6.1601 H       
 111 H111         -18.5071   -21.6403    -5.2549 H       
 112 H112         -18.2760   -25.0450    -5.3822 H       
 113 H113         -16.2324   -20.6752    -5.0477 H       
 114 H114         -15.5646   -22.0547    -5.9529 H       
 115 H115         -14.9894   -19.7697    -7.2607 H       
 116 H116         -16.0569   -19.4598    -8.5205 H       
 117 H117         -19.8651   -25.9968    -3.1247 H       
 118 H118         -21.1424   -24.9886    -5.7055 H       
 119 H119         -21.9890   -25.9449    -4.4657 H       
 120 H120         -21.3067   -28.0271    -4.1555 H       
 121 H121         -19.2703   -29.6576    -5.4677 H       
 122 H122         -22.0922   -30.2849    -4.4919 H       
 123 H123         -20.9701   -31.4847    -5.1773 H       
 124 H124         -19.3283   -30.9692    -3.3920 H       
 125 H125         -20.4504   -29.7694    -2.7066 H       
 126 H126         -22.1334   -31.5530    -2.3396 H       
 127 H127         -21.0114   -32.7528    -3.0250 H       
 128 H128         -12.9987   -15.2435     1.4905 H       
 129 H129         -11.3229   -15.3794     2.0751 H       
 130 H130         -11.1085   -12.9094     2.0343 H       
 131 H131         -12.7842   -12.7735     1.4498 H       
 132 H132         -11.7132   -11.6709     4.0558 H       
 133 H133         -13.3890   -11.5350     3.4713 H       
 134 H134         -13.0551   -12.2885     5.0489 H       
 135 H135         -18.0470   -17.7572     2.2881 H       
 136 H136         -13.8752   -18.5032     2.8400 H       
 137 H137         -13.9546   -20.2238     1.0816 H       
 138 H138         -16.0937   -17.4123     4.5364 H       
 139 H139         -19.3696   -32.2373    -1.2397 H       
 140 H140         -20.4916   -31.0375    -0.5543 H       
 141 H141         -21.0998   -33.9041    -0.8724 H       
 142 H142         -20.6760   -33.1643     0.5555 H       
 143 H143           1.9439     1.6943     0.8826 H       
 144 H144           1.9269     1.7038    -0.8972 H       
 145 H145           1.4019     3.1452     0.0056 H       
 146 H146         -21.4973   -24.1943    -2.7798 H       
 147 H147         -20.6508   -23.2380    -4.0196 H       
 148 H148         -22.7425   -23.1040    -5.3445 H       
 149 H149         -23.5891   -24.0602    -4.1047 H       
 150 H150         -23.0974   -22.3097    -2.4187 H       
 151 H151         -22.2509   -21.3534    -3.6585 H       
 152 H152         -24.5327   -20.6399    -3.3886 H       
 153 H153         -24.3411   -21.3118    -4.8978 H       
 154 H154         -20.8565   -31.3921    -7.4636 H       
 155 H155         -21.0544   -30.1919    -8.7632 H       
 156 H156         -19.4691   -30.4050    -7.9823 H       
 157 C157          11.1368    41.2616    14.6540 C.3     
 158 C158          11.8521    40.0397    14.1380 C.2     
 159 N159          11.8610    38.9060    14.8668 N.am    
 160 C160          12.5564    37.7181    14.3652 C.3     
 161 C161          11.9480    36.4834    14.9786 C.2     
 162 N162          12.4302    35.2656    14.6610 N.am    
 163 C163          11.8388    34.0652    15.2573 C.3     
 164 C164          12.8570    32.9543    15.2650 C.2     
 165 N165          12.5337    31.7473    15.7702 N.am    
 166 O166          13.9673    33.1462    14.8165 O.2     
 167 C167          13.5235    30.6673    15.7777 C.3     
 168 C168          13.1923    29.6900    16.8760 C.2     
 169 C169          13.5009    29.9455    14.4289 C.3     
 170 C170          13.9579    30.9058    13.3289 C.3     
 171 O171          13.9368    30.2316    12.0691 O.3     
 172 C172          14.3486    31.0442    10.9681 C.3     
 173 N173          13.9714    28.6080    17.0727 N.am    
 174 O174          12.2248    29.8772    17.5829 O.2     
 175 C175          13.6495    27.6579    18.1404 C.3     
 176 C176          14.9020    26.9348    18.5639 C.2     
 177 N177          14.9198    26.2362    19.7163 N.am    
 178 O178          15.8940    26.9816    17.8677 O.2     
 179 C179          16.1093    25.4657    20.0875 C.3     
 180 C180          15.7012    24.0685    20.4777 C.2     
 181 O181          14.5319    23.7478    20.4486 O.2     
 182 N182          16.6356    23.1752    20.8589 N.am    
 183 C183          16.2388    21.8169    21.2383 C.3     
 184 C184          15.8299    21.7980    22.7125 C.3     
 185 C185          17.3978    20.8773    21.0263 C.2     
 186 O186          18.4516    21.3006    20.6004 O.2     
 187 N187          17.2635    19.5667    21.3102 N.am    
 188 C188          18.3902    18.6533    21.1041 C.3     
 189 C189          19.2975    18.6767    22.3358 C.3     
 190 C190          17.8707    17.2551    20.8895 C.2     
 191 O191          16.6768    17.0425    20.9069 O.2     
 192 N192          18.7328    16.2409    20.6782 N.am    
 193 C193          18.2277    14.8816    20.4695 C.3     
 194 C194          17.9975    14.2094    21.8245 C.3     
 195 C195          19.2354    14.0871    19.6793 C.2     
 196 O196          20.2732    14.6052    19.3254 O.2     
 197 N197          18.9832    12.8007    19.3660 N.am    
 198 C198          16.8850    14.9437    22.5756 C.3     
 199 C199          16.6548    14.2716    23.9306 C.3     
 200 N200          15.5897    14.9747    24.6499 N.pl3   
 201 C201          15.2059    14.5477    25.8991 C.2     
 202 C202          12.6237    26.6444    17.6290 C.3     
 203 C203          12.1749    25.7462    18.7835 C.3     
 204 O204          11.4928    27.3379    17.0978 O.3     
 205 C205          16.8068    26.1421    21.2694 C.3     
 206 C206          17.3397    27.4838    20.8373 C.2     
 207 O207          18.0317    28.2415    21.7026 O.3     
 208 O208          17.1441    27.8777    19.7119 O.2     
 209 C209          14.5768    22.6544    22.9052 C.3     
 210 C210          14.1679    22.6355    24.3794 C.3     
 211 C211          12.9148    23.4919    24.5722 C.3     
 212 N212          12.5222    23.4737    25.9876 N.3     
 213 C213          19.9140    20.0443    22.4797 C.ar    
 214 C214          19.2699    21.0172    23.2214 C.ar    
 215 C215          21.1257    20.3222    21.8744 C.ar    
 216 C216          21.6932    21.5750    22.0051 C.ar    
 217 C217          21.0463    22.5545    22.7444 C.ar    
 218 C218          19.8329    22.2716    23.3548 C.ar    
 219 N219          15.8218    13.4610    26.4734 N.pl3   
 220 N220          14.2582    15.1733    26.5390 N.2     
 221 C221          10.6210    33.6353    14.4369 C.3     
 222 O222          11.0426    33.2397    13.1301 O.3     
 223 O223          11.0244    36.5856    15.7580 O.2     
 224 C224          14.0374    37.7975    14.7409 C.3     
 225 C225          14.6843    38.9807    14.0180 C.3     
 226 C226          16.1653    39.0601    14.3938 C.3     
 227 N227          16.7847    40.1930    13.7016 N.pl3   
 228 C228          18.1198    40.4646    13.8858 C.2     
 229 N229          18.8736    39.6729    14.7197 N.pl3   
 230 N230          18.6708    41.4725    13.2700 N.2     
 231 O231          12.4199    40.0765    13.0669 O.2     
 232 C232          19.9628    12.0283    18.5979 C.3     
 233 C233          19.7557    12.2766    17.1260 C.2     
 234 C234          19.7827    10.5381    18.8940 C.3     
 235 C235          20.1295    10.2636    20.3587 C.3     
 236 N236          20.5476    11.6670    16.2218 N.am    
 237 O237          18.8764    13.0251    16.7551 O.2     
 238 C238          19.7970     8.8091    20.6976 C.3     
 239 O239          21.6027    23.7875    22.8748 O.3     
 240 N240          11.7462    42.4666    14.0755 N.3     
 241 C241           9.6611    41.1949    14.2557 C.3     
 242 C242          12.8918    42.9145    14.8785 C.3     
 243 C243           8.9059    42.3596    14.8992 C.3     
 244 C244           7.4584    42.3647    14.4038 C.3     
 245 C245           8.9236    42.2003    16.4208 C.3     
 246 C246          21.6224    10.5114    20.5844 C.3     
 247 H247          11.2186    41.2989    15.7403 H       
 248 H248          11.4069    38.8766    15.7234 H       
 249 H249          12.4588    37.6709    13.2806 H       
 250 H250          13.1689    35.1839    14.0376 H       
 251 H251          11.5298    34.2820    16.2799 H       
 252 H252          11.6456    31.5938    16.1289 H       
 253 H253          14.5155    31.0849    15.9498 H       
 254 H254          14.1726    29.0878    14.4645 H       
 255 H255          12.4876    29.6049    14.2159 H       
 256 H256          13.2862    31.7635    13.2932 H       
 257 H257          14.9712    31.2464    13.5418 H       
 258 H258          13.6851    31.9048    10.8835 H       
 259 H259          15.3700    31.3877    11.1320 H       
 260 H260          14.3049    30.4600    10.0489 H       
 261 H261          14.7452    28.4582    16.5073 H       
 262 H262          13.2348    28.1960    18.9928 H       
 263 H263          14.1451    26.2435    20.2999 H       
 264 H264          16.7926    25.4211    19.2394 H       
 265 H265          17.5708    23.4316    20.8822 H       
 266 H266          15.3966    21.4993    20.6235 H       
 267 H267          15.6200    20.7730    23.0182 H       
 268 H268          16.6412    22.1993    23.3198 H       
 269 H269          16.4207    19.2281    21.6508 H       
 270 H270          18.9579    18.9684    20.2286 H       
 271 H271          18.7095    18.4480    23.2247 H       
 272 H272          20.0860    17.9330    22.2205 H       
 273 H273          19.6876    16.4109    20.6643 H       
 274 H274          17.2870    14.9238    19.9204 H       
 275 H275          17.7069    13.1703    21.6699 H       
 276 H276          18.9166    14.2466    22.4093 H       
 277 H277          18.1531    12.3863    19.6491 H       
 278 H278          17.1756    15.9829    22.7302 H       
 279 H279          15.9660    14.9066    21.9908 H       
 280 H280          16.3643    13.2324    23.7761 H       
 281 H281          17.5739    14.3087    24.5155 H       
 282 H282          15.1551    15.7414    24.2447 H       
 283 H283          13.0752    26.0333    16.8475 H       
 284 H284          11.7713    26.3620    19.5873 H       
 285 H285          11.4059    25.0588    18.4313 H       
 286 H286          13.0279    25.1780    19.1545 H       
 287 H287          11.7036    27.9273    16.3607 H       
 288 H288          16.0936    26.2790    22.0822 H       
 289 H289          17.6314    25.5165    21.6110 H       
 290 H290          18.3534    29.0943    21.3797 H       
 291 H291          14.7867    23.6794    22.5995 H       
 292 H292          13.7655    22.2530    22.2980 H       
 293 H293          13.9580    21.6105    24.6852 H       
 294 H294          14.9792    23.0368    24.9867 H       
 295 H295          13.1247    24.5169    24.2665 H       
 296 H296          12.1035    23.0905    23.9649 H       
 297 H297          13.2812    23.7807    26.5773 H       
 298 H298          11.6963    24.0326    26.1410 H       
 299 H299          18.3255    20.7964    23.6967 H       
 300 H300          21.6291    19.5592    21.2992 H       
 301 H301          22.6398    21.7915    21.5324 H       
 302 H302          19.3274    23.0325    23.9309 H       
 303 H303          16.5271    12.9954    25.9972 H       
 304 H304          15.5510    13.1598    27.3548 H       
 305 H305          13.9875    14.8721    27.4204 H       
 306 H306          10.1289    32.7965    14.9293 H       
 307 H307           9.9239    34.4694    14.3569 H       
 308 H308          10.3207    32.9540    12.5536 H       
 309 H309          14.1321    37.9341    15.8182 H       
 310 H310          14.5370    36.8746    14.4463 H       
 311 H311          14.5896    38.8441    12.9408 H       
 312 H312          14.1847    39.9036    14.3126 H       
 313 H313          16.2600    39.1966    15.4710 H       
 314 H314          16.6648    38.1372    14.0992 H       
 315 H315          16.2528    40.7515    13.1133 H       
 316 H316          18.4635    38.9228    15.1780 H       
 317 H317          19.8156    39.8646    14.8497 H       
 318 H318          19.6128    41.6641    13.4000 H       
 319 H319          20.9698    12.3357    18.8801 H       
 320 H320          18.7476    10.2528    18.7061 H       
 321 H321          20.4424     9.9572    18.2494 H       
 322 H322          19.5500    10.9277    20.9999 H       
 323 H323          21.2509    11.0683    16.5184 H       
 324 H324          20.4143    11.8268    15.2744 H       
 325 H325          19.9629     8.6368    21.7610 H       
 326 H326          18.7532     8.6092    20.4556 H       
 327 H327          20.4380     8.1452    20.1176 H       
 328 H328          21.3393    24.4127    22.1857 H       
 329 H329          12.0162    42.3102    13.1160 H       
 330 H330           9.5742    41.2605    13.1711 H       
 331 H331           9.2346    40.2520    14.5979 H       
 332 H332          12.5766    43.0600    15.9117 H       
 333 H333          13.6784    42.1609    14.8413 H       
 334 H334          13.2705    43.8550    14.4782 H       
 335 H335           9.3866    43.2991    14.6266 H       
 336 H336           6.9526    41.4634    14.7501 H       
 337 H337           6.9439    43.2428    14.7941 H       
 338 H338           7.4474    42.3916    13.3142 H       
 339 H339           9.9549    42.1966    16.7737 H       
 340 H340           8.3857    43.0300    16.8793 H       
 341 H341           8.4430    41.2607    16.6934 H       
 342 H342          21.8593    11.5476    20.3429 H       
 343 H343          21.8695    10.3158    21.6278 H       
 344 H344          22.2019     9.8473    19.9431 H       
@<TRIPOS>BOND
   1    1    2 1
   2    1   63 1
   3    1   71 1
   4    1   72 1
   5    2    3 1
   6    2   73 1
   7    2   74 1
   8    3    4 1
   9    3   75 1
  10    3   76 1
  11    4    5 1
  12    4   77 1
  13    4   78 1
  14    5    6 1
  15    5   79 1
  16    5   80 1
  17    6    7 1
  18    6   81 1
  19    6   82 1
  20    7    8 1
  21    7   83 1
  22    7   84 1
  23    8    9 1
  24    8   85 1
  25    8   86 1
  26    9   10 1
  27    9   87 1
  28    9   88 1
  29   10   11 1
  30   10   89 1
  31   10   90 1
  32   11   12 1
  33   11   91 1
  34   11   92 1
  35   12   13 1
  36   12   93 1
  37   12   94 1
  38   13   14 1
  39   13   95 1
  40   13   96 1
  41   14   15 1
  42   14   97 1
  43   14   98 1
  44   15   16 am
  45   15   17 2
  46   16   18 1
  47   16   64 1
  48   18   19 1
  49   18   51 1
  50   18   99 1
  51   19   20 am
  52   19   21 2
  53   20   22 1
  54   20  100 1
  55   22   23 1
  56   22  101 1
  57   22  102 1
  58   23   24 am
  59   23   25 2
  60   24   26 1
  61   24  103 1
  62   26   27 1
  63   26   30 1
  64   26  104 1
  65   27   28 2
  66   27   29 am
  67   29   33 1
  68   29  105 1
  69   30   31 1
  70   30  106 1
  71   30  107 1
  72   31   32 ar
  73   31   58 ar
  74   32   55 ar
  75   32  108 1
  76   33   34 1
  77   33   35 1
  78   33  109 1
  79   34   38 1
  80   34  110 1
  81   34  111 1
  82   35   36 2
  83   35   37 am
  84   37   41 1
  85   37  112 1
  86   38   39 1
  87   38  113 1
  88   38  114 1
  89   39   40 am
  90   39   60 2
  91   40  115 1
  92   40  116 1
  93   41   42 1
  94   41   43 1
  95   41  117 1
  96   42   65 1
  97   42  118 1
  98   42  119 1
  99   43   44 2
 100   43   45 am
 101   45   46 1
 102   45  120 1
 103   46   47 1
 104   46   48 1
 105   46  121 1
 106   47   49 1
 107   47  122 1
 108   47  123 1
 109   48   69 2
 110   48   70 1
 111   49   50 1
 112   49  124 1
 113   49  125 1
 114   50   61 1
 115   50  126 1
 116   50  127 1
 117   51   52 1
 118   51  128 1
 119   51  129 1
 120   52   53 1
 121   52  130 1
 122   52  131 1
 123   53   54 1
 124   54  132 1
 125   54  133 1
 126   54  134 1
 127   55   56 ar
 128   55  135 1
 129   56   57 ar
 130   56   59 1
 131   57   58 ar
 132   57  136 1
 133   58  137 1
 134   59  138 1
 135   61   62 1
 136   61  139 1
 137   61  140 1
 138   62  141 1
 139   62  142 1
 140   63  143 1
 141   63  144 1
 142   63  145 1
 143   65   66 1
 144   65  146 1
 145   65  147 1
 146   66   67 1
 147   66  148 1
 148   66  149 1
 149   67   68 1
 150   67  150 1
 151   67  151 1
 152   68  152 1
 153   68  153 1
 154   70  154 1
 155   70  155 1
 156   70  156 1
 157  157  158 1
 158  157  240 1
 159  157  241 1
 160  157  247 1
 161  158  159 am
 162  158  231 2
 163  159  160 1
 164  159  248 1
 165  160  161 1
 166  160  224 1
 167  160  249 1
 168  161  162 am
 169  161  223 2
 170  162  163 1
 171  162  250 1
 172  163  164 1
 173  163  221 1
 174  163  251 1
 175  164  165 am
 176  164  166 2
 177  165  167 1
 178  165  252 1
 179  167  168 1
 180  167  169 1
 181  167  253 1
 182  168  173 am
 183  168  174 2
 184  169  170 1
 185  169  254 1
 186  169  255 1
 187  170  171 1
 188  170  256 1
 189  170  257 1
 190  171  172 1
 191  172  258 1
 192  172  259 1
 193  172  260 1
 194  173  175 1
 195  173  261 1
 196  175  176 1
 197  175  202 1
 198  175  262 1
 199  176  177 am
 200  176  178 2
 201  177  179 1
 202  177  263 1
 203  179  180 1
 204  179  205 1
 205  179  264 1
 206  180  181 2
 207  180  182 am
 208  182  183 1
 209  182  265 1
 210  183  184 1
 211  183  185 1
 212  183  266 1
 213  184  209 1
 214  184  267 1
 215  184  268 1
 216  185  186 2
 217  185  187 am
 218  187  188 1
 219  187  269 1
 220  188  189 1
 221  188  190 1
 222  188  270 1
 223  189  213 1
 224  189  271 1
 225  189  272 1
 226  190  191 2
 227  190  192 am
 228  192  193 1
 229  192  273 1
 230  193  194 1
 231  193  195 1
 232  193  274 1
 233  194  198 1
 234  194  275 1
 235  194  276 1
 236  195  196 2
 237  195  197 am
 238  197  232 1
 239  197  277 1
 240  198  199 1
 241  198  278 1
 242  198  279 1
 243  199  200 1
 244  199  280 1
 245  199  281 1
 246  200  201 1
 247  200  282 1
 248  201  219 1
 249  201  220 2
 250  202  203 1
 251  202  204 1
 252  202  283 1
 253  203  284 1
 254  203  285 1
 255  203  286 1
 256  204  287 1
 257  205  206 1
 258  205  288 1
 259  205  289 1
 260  206  207 1
 261  206  208 2
 262  207  290 1
 263  209  210 1
 264  209  291 1
 265  209  292 1
 266  210  211 1
 267  210  293 1
 268  210  294 1
 269  211  212 1
 270  211  295 1
 271  211  296 1
 272  212  297 1
 273  212  298 1
 274  213  214 ar
 275  213  215 ar
 276  214  218 ar
 277  214  299 1
 278  215  216 ar
 279  215  300 1
 280  216  217 ar
 281  216  301 1
 282  217  218 ar
 283  217  239 1
 284  218  302 1
 285  219  303 1
 286  219  304 1
 287  220  305 1
 288  221  222 1
 289  221  306 1
 290  221  307 1
 291  222  308 1
 292  224  225 1
 293  224  309 1
 294  224  310 1
 295  225  226 1
 296  225  311 1
 297  225  312 1
 298  226  227 1
 299  226  313 1
 300  226  314 1
 301  227  228 1
 302  227  315 1
 303  228  229 1
 304  228  230 2
 305  229  316 1
 306  229  317 1
 307  230  318 1
 308  232  233 1
 309  232  234 1
 310  232  319 1
 311  233  236 am
 312  233  237 2
 313  234  235 1
 314  234  320 1
 315  234  321 1
 316  235  238 1
 317  235  246 1
 318  235  322 1
 319  236  323 1
 320  236  324 1
 321  238  325 1
 322  238  326 1
 323  238  327 1
 324  239  328 1
 325  240  242 1
 326  240  329 1
 327  241  243 1
 328  241  330 1
 329  241  331 1
 330  242  332 1
 331  242  333 1
 332  242  334 1
 333  243  244 1
 334  243  245 1
 335  243  335 1
 336  244  336 1
 337  244  337 1
 338  244  338 1
 339  245  339 1
 340  245  340 1
 341  245  341 1
 342  246  342 1
 343  246  343 1
 344  246  344 1

#	End of record

