#	Name: ASD01948339
#	Creating user name:	WinNT
#	Creation time:	15. 06. 2019 20:14

#	Modifying user name:	WinNT
#	Modification time:	15. 06. 2019 20:14

#	Program:	/corina/corina34_cracker 3.40 0067  02.08.2006

@<TRIPOS>MOLECULE
ASD01948339
  53   55    0    0    0
SMALL
NO_CHARGES


@<TRIPOS>ATOM
   1 C1             0.1753     1.9388    -0.0259 C.2     
   2 N2             0.2684     0.5900    -0.2059 N.am    
   3 C3             1.4648    -0.0155    -0.3188 C.2     
   4 C4             2.5636     2.1042    -0.0714 C.2     
   5 C5             1.2879     2.7068     0.0438 C.2     
   6 C6             3.0589     4.0509    -2.0066 C.ar    
   7 C7             3.9340     3.8866    -0.9419 C.ar    
   8 N8             3.7134     2.8728    -0.0031 N.pl3   
   9 C9             3.2792     5.0526    -2.9326 C.ar    
  10 C10            4.3708     5.8917    -2.8005 C.ar    
  11 C11            5.2459     5.7320    -1.7403 C.ar    
  12 C12            5.0312     4.7318    -0.8104 C.ar    
  13 N13            1.1770     4.0945     0.2300 N.am    
  14 S14           -0.3174     4.7952     0.3642 S.o2    
  15 C15           -0.9902     4.1331     1.9133 C.3     
  16 O16            1.5214    -1.2254    -0.4791 O.2     
  17 C17           -0.9547    -0.2132    -0.2771 C.3     
  18 F18            5.8853     4.5757     0.2247 F       
  19 Br19           4.6683     7.2600    -4.0714 Br      
  20 O20           -0.0432     6.1835     0.4928 O.2     
  21 O21           -1.0419     4.2915    -0.7496 O.2     
  22 C22            2.6433     0.7339    -0.2539 C.2     
  23 C23           -2.3736     4.6209     2.3482 C.3     
  24 C24           -2.1968     3.1972     1.8165 C.3     
  25 C25            0.0369     3.8510     3.0116 C.3     
  26 C26            0.6970     5.1626     3.4416 C.3     
  27 O27           -0.2836     6.0183     4.0317 O.3     
  28 C28            1.7981     4.8687     4.4625 C.3     
  29 O29            2.4915     6.0781     4.7766 O.3     
  30 C30            3.9844     0.0582    -0.3800 C.3     
  31 F31            4.4201    -0.3533     0.8841 F       
  32 F32            3.8685    -1.0555    -1.2187 F       
  33 F33            4.9098     0.9562    -0.9227 F       
  34 H34           -0.7977     2.4001     0.0576 H       
  35 H35            2.2087     3.3935    -2.1138 H       
  36 H36            4.3659     2.7084     0.6956 H       
  37 H37            2.5981     5.1803    -3.7611 H       
  38 H38            6.0975     6.3886    -1.6397 H       
  39 H39            1.9759     4.6425     0.2799 H       
  40 H40           -1.2868    -0.2784    -1.3132 H       
  41 H41           -0.7545    -1.2146     0.1040 H       
  42 H42           -1.7329     0.2559     0.3250 H       
  43 H43           -2.5521     4.7405     3.4168 H       
  44 H44           -2.8795     5.3397     1.7035 H       
  45 H45           -2.5862     2.9793     0.8221 H       
  46 H46           -2.2589     2.3802     2.5353 H       
  47 H47           -0.4622     3.3976     3.8680 H       
  48 H48            0.7975     3.1691     2.6314 H       
  49 H49            1.1308     5.6537     2.5705 H       
  50 H50           -0.7121     5.6446     4.8140 H       
  51 H51            1.3529     4.4591     5.3692 H       
  52 H52            2.4987     4.1465     4.0434 H       
  53 H53            3.2051     5.9666     5.4196 H       
@<TRIPOS>BOND
   1    1    2 1
   2    1    5 2
   3    1   34 1
   4    2    3 am
   5    2   17 1
   6    3   22 1
   7    3   16 2
   8    4    5 1
   9    4    8 1
  10    4   22 2
  11    5   13 1
  12    6    7 ar
  13    6    9 ar
  14    6   35 1
  15    7    8 1
  16    7   12 ar
  17    8   36 1
  18    9   10 ar
  19    9   37 1
  20   10   11 ar
  21   10   19 1
  22   11   12 ar
  23   11   38 1
  24   12   18 1
  25   13   14 am
  26   13   39 1
  27   14   15 1
  28   14   20 2
  29   14   21 2
  30   15   23 1
  31   15   25 1
  32   15   24 1
  33   17   40 1
  34   17   41 1
  35   17   42 1
  36   22   30 1
  37   23   24 1
  38   23   43 1
  39   23   44 1
  40   24   45 1
  41   24   46 1
  42   25   26 1
  43   25   47 1
  44   25   48 1
  45   26   27 1
  46   26   28 1
  47   26   49 1
  48   27   50 1
  49   28   29 1
  50   28   51 1
  51   28   52 1
  52   29   53 1
  53   30   31 1
  54   30   32 1
  55   30   33 1

#	End of record

