#	Name: ASD03740128
#	Creating user name:	WinNT
#	Creation time:	15. 06. 2019 20:46

#	Modifying user name:	WinNT
#	Modification time:	15. 06. 2019 20:46

#	Program:	/corina/corina34_cracker 3.40 0067  02.08.2006

@<TRIPOS>MOLECULE
ASD03740128
  31   33    0    0    0
SMALL
NO_CHARGES


@<TRIPOS>ATOM
   1 C1            -0.0169     1.3934     0.0097 C.ar    
   2 C2             0.0021    -0.0041     0.0020 C.ar    
   3 C3            -1.1416    -0.7348     0.0086 C.ar    
   4 C4            -2.3897    -0.0757     0.0240 C.ar    
   5 C5            -2.4084     1.3955     0.0326 C.ar    
   6 C6            -1.1801     2.0907     0.0301 C.ar    
   7 N7            -3.6492    -0.4726     0.0336 N.2     
   8 N8            -4.4806     0.6531     0.0478 N.pl3   
   9 C9            -3.7393     1.7692     0.0472 C.2     
  10 C10            1.2892     2.1451     0.0013 C.3     
  11 Br11           1.6666    -0.9012    -0.0187 Br      
  12 C12           -5.9451     0.6166     0.0613 C.3     
  13 C13           -6.4379    -0.2045    -1.1024 C.ar    
  14 C14           -6.6329    -1.5651    -0.9545 C.ar    
  15 C15           -7.0849    -2.3187    -2.0214 C.ar    
  16 C16           -7.3420    -1.7111    -3.2375 C.ar    
  17 C17           -7.1466    -0.3494    -3.3848 C.ar    
  18 C18           -6.7000     0.4041    -2.3156 C.ar    
  19 Cl19          -7.9091    -2.6570    -4.5781 Cl      
  20 H20           -1.0971    -1.8138     0.0016 H       
  21 H21           -1.1666     3.1706     0.0363 H       
  22 H22           -4.1150     2.7817     0.0568 H       
  23 H23            1.5943     2.3318    -1.0284 H       
  24 H24            1.1652     3.0949     0.5214 H       
  25 H25            2.0529     1.5522     0.5047 H       
  26 H26           -6.2888     0.1684     0.9936 H       
  27 H27           -6.3346     1.6314    -0.0193 H       
  28 H28           -6.4318    -2.0393    -0.0053 H       
  29 H29           -7.2369    -3.3816    -1.9059 H       
  30 H30           -7.3472     0.1255    -4.3339 H       
  31 H31           -6.5474     1.4671    -2.4305 H       
@<TRIPOS>BOND
   1    1    2 ar
   2    1   10 1
   3    1    6 ar
   4    2    3 ar
   5    2   11 1
   6    3    4 ar
   7    3   20 1
   8    4    5 ar
   9    4    7 2
  10    5    6 ar
  11    5    9 2
  12    6   21 1
  13    7    8 1
  14    8    9 1
  15    8   12 1
  16    9   22 1
  17   10   23 1
  18   10   24 1
  19   10   25 1
  20   12   13 1
  21   12   26 1
  22   12   27 1
  23   13   14 ar
  24   13   18 ar
  25   14   15 ar
  26   14   28 1
  27   15   16 ar
  28   15   29 1
  29   16   17 ar
  30   16   19 1
  31   17   18 ar
  32   17   30 1
  33   18   31 1

#	End of record

