#	Name: ASD06560006
#	Creating user name:	WinNT
#	Creation time:	15. 06. 2019 21:06

#	Modifying user name:	WinNT
#	Modification time:	15. 06. 2019 21:06

#	Program:	/corina/corina34_cracker 3.40 0067  02.08.2006

@<TRIPOS>MOLECULE
ASD06560006
  52   56    0    0    0
SMALL
NO_CHARGES


@<TRIPOS>ATOM
   1 C1            -0.0184     1.5028     0.0103 C.3     
   2 C2             0.0021    -0.0041     0.0020 C.ar    
   3 C3             0.0229    -0.6995     1.1975 C.ar    
   4 C4             0.0416    -2.0796     1.1957 C.ar    
   5 C5             0.0396    -2.7722    -0.0132 C.ar    
   6 C6             0.0186    -2.0667    -1.2144 C.ar    
   7 C7            -0.0057    -0.6867    -1.2010 C.ar    
   8 C8             0.0602    -4.2564    -0.0214 C.2     
   9 N9             0.0809    -5.0491     1.0212 N.2     
  10 O10            0.0937    -6.2122     0.6915 O.3     
  11 C11            0.0830    -6.3527    -0.6417 C.2     
  12 C12            0.0553    -5.1053    -1.1632 C.2     
  13 C13            0.0938    -7.6491    -1.4100 C.3     
  14 C14           -1.1458    -8.4784    -1.0381 C.3     
  15 C15           -0.9401    -9.9088    -1.5877 C.3     
  16 C16           -0.2033   -10.6629    -0.4612 C.3     
  17 C17           -0.0307    -9.6196     0.6667 C.3     
  18 N18           -1.1346    -8.6494     0.4392 N.3     
  19 C19           -2.4154    -9.1878     0.9164 C.3     
  20 C20            1.2900    -8.8733     0.4187 C.3     
  21 C21            1.3503    -8.4475    -1.0511 C.3     
  22 C22            2.5697    -7.5907    -1.2751 C.ar    
  23 C23            3.5374    -7.9889    -2.1784 C.ar    
  24 C24            4.6560    -7.2035    -2.3843 C.ar    
  25 C25            4.8070    -6.0187    -1.6861 C.ar    
  26 C26            3.8381    -5.6207    -0.7822 C.ar    
  27 C27            2.7173    -6.4041    -0.5814 C.ar    
  28 Cl28           6.2119    -5.0320    -1.9437 Cl      
  29 H29            1.0042     1.8801     0.0026 H       
  30 H30           -0.5455     1.8639    -0.8728 H       
  31 H31           -0.5286     1.8543     0.9071 H       
  32 H32            0.0248    -0.1616     2.1340 H       
  33 H33            0.0582    -2.6217     2.1296 H       
  34 H34            0.0173    -2.5986    -2.1543 H       
  35 H35           -0.0220    -0.1388    -2.1315 H       
  36 H36            0.0392    -4.8196    -2.2046 H       
  37 H37            0.0855    -7.4396    -2.4797 H       
  38 H38           -2.0675    -8.0252    -1.4030 H       
  39 H39           -1.9022   -10.3785    -1.7923 H       
  40 H40           -0.3294    -9.8842    -2.4902 H       
  41 H41           -0.8032   -11.5033    -0.1119 H       
  42 H42            0.7696   -11.0091    -0.8098 H       
  43 H43           -0.0769   -10.0720     1.6573 H       
  44 H44           -2.3477    -9.3931     1.9848 H       
  45 H45           -3.2057    -8.4592     0.7359 H       
  46 H46           -2.6431   -10.1106     0.3828 H       
  47 H47            1.3328    -7.9893     1.0550 H       
  48 H48            1.4097    -9.3336    -1.6831 H       
  49 H49            3.4196    -8.9140    -2.7231 H       
  50 H50            5.4121    -7.5149    -3.0897 H       
  51 H51            3.9554    -4.6959    -0.2369 H       
  52 H52            1.9609    -6.0936     0.1242 H       
@<TRIPOS>BOND
   1    1    2 1
   2    1   29 1
   3    1   30 1
   4    1   31 1
   5    2    3 ar
   6    2    7 ar
   7    3    4 ar
   8    3   32 1
   9    4    5 ar
  10    4   33 1
  11    5    6 ar
  12    5    8 1
  13    6    7 ar
  14    6   34 1
  15    7   35 1
  16    8    9 2
  17    8   12 1
  18    9   10 1
  19   10   11 1
  20   11   12 2
  21   11   13 1
  22   12   36 1
  23   13   14 1
  24   13   21 1
  25   13   37 1
  26   14   15 1
  27   14   18 1
  28   14   38 1
  29   15   16 1
  30   15   39 1
  31   15   40 1
  32   16   17 1
  33   16   41 1
  34   16   42 1
  35   17   18 1
  36   17   20 1
  37   17   43 1
  38   18   19 1
  39   19   44 1
  40   19   45 1
  41   19   46 1
  42   20   21 1
  43   20   47 1
  44   21   22 1
  45   21   48 1
  46   22   23 ar
  47   22   27 ar
  48   23   24 ar
  49   23   49 1
  50   24   25 ar
  51   24   50 1
  52   25   26 ar
  53   25   28 1
  54   26   27 ar
  55   26   51 1
  56   27   52 1

#	End of record

