#	Name: ASD04560187
#	Creating user name:	WinNT
#	Creation time:	15. 06. 2019 20:49

#	Modifying user name:	WinNT
#	Modification time:	15. 06. 2019 20:49

#	Program:	/corina/corina34_cracker 3.40 0067  02.08.2006

@<TRIPOS>MOLECULE
ASD04560187
  42   44    0    0    0
SMALL
NO_CHARGES


@<TRIPOS>ATOM
   1 C1            -0.0157     1.3632    -0.0077 C.ar    
   2 C2             0.0032    -0.0046    -0.0223 C.ar    
   3 C3             1.2279    -0.6718    -0.0398 C.ar    
   4 N4             2.3710     0.0016    -0.0419 N.ar    
   5 C5             2.3971     1.3178    -0.0282 C.ar    
   6 C6             1.2088     2.0502    -0.0108 C.ar    
   7 C7             1.2392     3.5246     0.0045 C.2     
   8 O8             0.1988     4.1541     0.0196 O.2     
   9 N9             2.4200     4.1743     0.0019 N.am    
  10 C10            2.4505     5.5701    -0.0966 C.ar    
  11 C11            3.4269     6.2934     0.5757 C.ar    
  12 C12            1.5401     7.6106    -0.9674 C.ar    
  13 C13            1.5079     6.2333    -0.8712 C.ar    
  14 S14            1.2573    -2.4335    -0.0586 S.3     
  15 C15            3.0447    -2.7178    -0.0768 C.3     
  16 C16            3.3175    -4.1998    -0.0948 C.ar    
  17 C17            3.4324    -4.8668    -1.2999 C.ar    
  18 C18            3.6826    -6.2264    -1.3163 C.ar    
  19 C19            3.8183    -6.9186    -0.1277 C.ar    
  20 C20            3.7042    -6.2513     1.0777 C.ar    
  21 C21            3.4584    -4.8913     1.0942 C.ar    
  22 C22            3.2846    -4.1120    -2.5958 C.3     
  23 C23            3.4555     7.6706     0.4768 C.ar    
  24 C24            2.5114     8.3303    -0.2920 C.ar    
  25 F25            2.5411     9.6776    -0.3873 F       
  26 H26           -0.9514     1.9025     0.0015 H       
  27 H27           -0.9215    -0.5626    -0.0200 H       
  28 H28            3.3452     1.8349    -0.0304 H       
  29 H29            3.2487     3.6745     0.0681 H       
  30 H30            4.1632     5.7793     1.1757 H       
  31 H31            0.8072     8.1268    -1.5697 H       
  32 H32            0.7504     5.6723    -1.3984 H       
  33 H33            3.4768    -2.2581    -0.9657 H       
  34 H34            3.4918    -2.2769     0.8141 H       
  35 H35            3.7717    -6.7477    -2.2580 H       
  36 H36            4.0130    -7.9808    -0.1406 H       
  37 H37            3.8098    -6.7922     2.0065 H       
  38 H38            3.3693    -4.3700     2.0358 H       
  39 H39            4.2595    -3.7437    -2.9151 H       
  40 H40            2.8795    -4.7765    -3.3591 H       
  41 H41            2.6077    -3.2700    -2.4508 H       
  42 H42            4.2145     8.2335     0.9998 H       
@<TRIPOS>BOND
   1    1    2 ar
   2    1    6 ar
   3    1   26 1
   4    2    3 ar
   5    2   27 1
   6    3    4 ar
   7    3   14 1
   8    4    5 ar
   9    5    6 ar
  10    5   28 1
  11    6    7 1
  12    7    8 2
  13    7    9 am
  14    9   10 1
  15    9   29 1
  16   10   11 ar
  17   10   13 ar
  18   11   23 ar
  19   11   30 1
  20   12   13 ar
  21   12   24 ar
  22   12   31 1
  23   13   32 1
  24   14   15 1
  25   15   16 1
  26   15   33 1
  27   15   34 1
  28   16   17 ar
  29   16   21 ar
  30   17   18 ar
  31   17   22 1
  32   18   19 ar
  33   18   35 1
  34   19   20 ar
  35   19   36 1
  36   20   21 ar
  37   20   37 1
  38   21   38 1
  39   22   39 1
  40   22   40 1
  41   22   41 1
  42   23   24 ar
  43   23   42 1
  44   24   25 1

#	End of record

