#	Name: ASD02770013
#	Creating user name:	WinNT
#	Creation time:	15. 06. 2019 20:26

#	Modifying user name:	WinNT
#	Modification time:	15. 06. 2019 20:26

#	Program:	/corina/corina34_cracker 3.40 0067  02.08.2006

@<TRIPOS>MOLECULE
ASD02770013
  47   47    0    0    0
SMALL
NO_CHARGES


@<TRIPOS>ATOM
   1 C1            -0.0184     1.5028     0.0103 C.2     
   2 C2             0.0021    -0.0041     0.0020 C.3     
   3 O3             1.0236     2.1234     0.0037 O.2     
   4 N4            -1.1946     2.1607     0.0195 N.am    
   5 O5             1.3556    -0.4620    -0.0134 O.3     
   6 C6             1.5521    -1.8079    -0.0225 C.ar    
   7 C7             1.6410    -2.4891    -1.2270 C.ar    
   8 C8             1.8408    -3.8579    -1.2339 C.ar    
   9 C9             1.9517    -4.5492    -0.0417 C.ar    
  10 C10            1.8635    -3.8757     1.1622 C.ar    
  11 C11            1.6700    -2.5034     1.1765 C.ar    
  12 O12            1.5895    -1.8389     2.3603 O.3     
  13 C13            1.7194    -2.6175     3.5515 C.3     
  14 C14            2.1688    -6.0404    -0.0547 C.3     
  15 N15            3.6099    -6.3253    -0.0707 N.3     
  16 C16            3.8602    -7.7727    -0.0837 C.3     
  17 C17            5.3684    -8.0293    -0.1001 C.3     
  18 C18            5.6253    -9.5142    -0.1135 C.ar    
  19 C19            5.6288   -10.2058    -1.3132 C.ar    
  20 C20            5.8649   -11.5699    -1.3240 C.ar    
  21 C21            6.0966   -12.2399    -0.1375 C.ar    
  22 C22            6.0924   -11.5487     1.0595 C.ar    
  23 C23            5.8629   -10.1852     1.0708 C.ar    
  24 F24            5.4017    -9.5499    -2.4723 F       
  25 Cl25           1.5011    -1.6245    -2.7258 Cl      
  26 H26           -0.4983    -0.3791     0.8948 H       
  27 H27           -0.5153    -0.3696    -0.8850 H       
  28 H28           -2.0280     1.6644     0.0207 H       
  29 H29           -1.2077     3.1306     0.0248 H       
  30 H30            1.9100    -4.3877    -2.1725 H       
  31 H31            1.9497    -4.4184     2.0920 H       
  32 H32            0.9298    -3.3683     3.5827 H       
  33 H33            2.6910    -3.1117     3.5584 H       
  34 H34            1.6366    -1.9667     4.4219 H       
  35 H35            1.7213    -6.4805     0.8364 H       
  36 H36            1.7042    -6.4674    -0.9434 H       
  37 H37            4.0591    -5.8736    -0.8531 H       
  38 H38            3.4244    -8.2249     0.8072 H       
  39 H39            3.4073    -8.2118    -0.9726 H       
  40 H40            5.8043    -7.5772    -0.9910 H       
  41 H41            5.8214    -7.5902     0.7888 H       
  42 H42            5.8675   -12.1103    -2.2590 H       
  43 H43            6.2808   -13.3041    -0.1456 H       
  44 H44            6.2729   -12.0732     1.9861 H       
  45 H45            5.8649    -9.6452     2.0061 H       
  46 Cl46          11.2808     8.1306     9.4219 Cl      
  47 H47           11.2808     9.5006     9.4219 H       
@<TRIPOS>BOND
   1    1    2 1
   2    1    3 2
   3    1    4 am
   4    2    5 1
   5    2   26 1
   6    2   27 1
   7    4   28 1
   8    4   29 1
   9    5    6 1
  10    6    7 ar
  11    6   11 ar
  12    7    8 ar
  13    7   25 1
  14    8    9 ar
  15    8   30 1
  16    9   10 ar
  17    9   14 1
  18   10   11 ar
  19   10   31 1
  20   11   12 1
  21   12   13 1
  22   13   32 1
  23   13   33 1
  24   13   34 1
  25   14   15 1
  26   14   35 1
  27   14   36 1
  28   15   16 1
  29   15   37 1
  30   16   17 1
  31   16   38 1
  32   16   39 1
  33   17   18 1
  34   17   40 1
  35   17   41 1
  36   18   19 ar
  37   18   23 ar
  38   19   20 ar
  39   19   24 1
  40   20   21 ar
  41   20   42 1
  42   21   22 ar
  43   21   43 1
  44   22   23 ar
  45   22   44 1
  46   23   45 1
  47   46   47 1

#	End of record

