#	Name: ASD01140361
#	Creating user name:	WinNT
#	Creation time:	15. 06. 2019 19:00

#	Modifying user name:	WinNT
#	Modification time:	15. 06. 2019 19:00

#	Program:	/corina/corina34_cracker 3.40 0067  02.08.2006

@<TRIPOS>MOLECULE
ASD01140361
  29   32    0    0    0
SMALL
NO_CHARGES


@<TRIPOS>ATOM
   1 N1            -0.0165     1.3630     0.0095 N.pl3   
   2 C2             0.0021    -0.0041     0.0020 C.2     
   3 C3             1.2440    -0.8628    -0.0466 C.3     
   4 N4             1.9826    -0.4791    -1.2556 N.pl3   
   5 C5             2.4122     0.7681    -1.5431 C.2     
   6 C6             2.2371     1.9845    -0.7245 C.ar    
   7 C7             1.0749     2.2359     0.0038 C.ar    
   8 C8             3.2872     2.9101    -0.6872 C.ar    
   9 C9             3.1758     4.0582     0.0658 C.ar    
  10 C10            2.0227     4.3031     0.7911 C.ar    
  11 C11            0.9796     3.4007     0.7611 C.ar    
  12 N12            2.3734    -1.3042    -2.3139 N.2     
  13 C13            3.0045    -0.5407    -3.1708 C.2     
  14 N14            3.0296     0.7071    -2.7099 N.2     
  15 C15           -1.3264     1.7339     0.0355 C.2     
  16 N16           -2.0643     0.6573     0.0556 N.2     
  17 C17           -1.2713    -0.4261     0.0358 C.2     
  18 C18           -1.7300    -1.8616     0.0487 C.3     
  19 F19           -2.9769    -1.9583    -0.5781 F       
  20 F20           -0.8016    -2.6540    -0.6350 F       
  21 H21            1.8564    -0.6815     0.8367 H       
  22 H22            0.9665    -1.9156    -0.0985 H       
  23 H23            4.1889     2.7228    -1.2513 H       
  24 H24            3.9895     4.7680     0.0906 H       
  25 H25            1.9392     5.2033     1.3820 H       
  26 H26            0.0829     3.5987     1.3295 H       
  27 H27            3.4362    -0.8716    -4.1038 H       
  28 H28           -1.6936     2.7495     0.0393 H       
  29 H29           -1.8135    -2.2070     1.0791 H       
@<TRIPOS>BOND
   1    1    2 1
   2    1    7 1
   3    1   15 1
   4    2    3 1
   5    2   17 2
   6    3    4 1
   7    3   21 1
   8    3   22 1
   9    4    5 1
  10    4   12 1
  11    5    6 1
  12    5   14 2
  13    6    7 ar
  14    6    8 ar
  15    7   11 ar
  16    8    9 ar
  17    8   23 1
  18    9   10 ar
  19    9   24 1
  20   10   11 ar
  21   10   25 1
  22   11   26 1
  23   12   13 2
  24   13   14 1
  25   13   27 1
  26   15   16 2
  27   15   28 1
  28   16   17 1
  29   17   18 1
  30   18   19 1
  31   18   20 1
  32   18   29 1

#	End of record

