#	Name: ASD08150708
#	Creating user name:	WinNT
#	Creation time:	15. 06. 2019 21:16

#	Modifying user name:	WinNT
#	Modification time:	15. 06. 2019 21:16

#	Program:	/corina/corina34_cracker 3.40 0067  02.08.2006

@<TRIPOS>MOLECULE
ASD08150708
  26   27    0    0    0
SMALL
NO_CHARGES


@<TRIPOS>ATOM
   1 C1            -0.0173     1.3307     0.1144 C.2     
   2 N2            -0.0006     0.0026     0.2077 N.2     
   3 C3             1.1379    -0.6678     0.2945 C.2     
   4 C4             2.3418     0.0100     0.2896 C.2     
   5 C5             2.3321     1.4069     0.1918 C.2     
   6 N6             1.1468     2.0477     0.1054 N.am    
   7 C7            -1.2494     2.0036     0.0181 C.2     
   8 C8            -1.2647     3.3628    -0.0774 C.2     
   9 C9            -0.0540     4.0700    -0.0781 C.2     
  10 C10            1.1204     3.4061     0.0093 C.2     
  11 O11            3.3788     2.0354     0.1852 O.2     
  12 C12            2.4148     4.1777     0.0011 C.3     
  13 C13            1.1204    -2.1710     0.3993 C.3     
  14 C14            0.4597    -2.5828     1.7164 C.3     
  15 Cl15           0.1877    -2.8590    -0.9818 Cl      
  16 Br16           3.9761    -0.9333     0.4136 Br      
  17 H17           -2.1752     1.4474     0.0194 H       
  18 H18           -2.2032     3.8919    -0.1523 H       
  19 H19           -0.0594     5.1473    -0.1535 H       
  20 H20            3.0208     3.8617    -0.8481 H       
  21 H21            2.2020     5.2436    -0.0811 H       
  22 H22            2.9580     3.9860     0.9264 H       
  23 H23            2.1424    -2.5490     0.3718 H       
  24 H24           -0.5623    -2.2048     1.7440 H       
  25 H25            0.4471    -3.6701     1.7922 H       
  26 H26            1.0236    -2.1669     2.5514 H       
@<TRIPOS>BOND
   1    1    2 2
   2    1    6 1
   3    1    7 1
   4    2    3 1
   5    3    4 2
   6    3   13 1
   7    4    5 1
   8    4   16 1
   9    5    6 am
  10    5   11 2
  11    6   10 1
  12    7    8 2
  13    7   17 1
  14    8    9 1
  15    8   18 1
  16    9   10 2
  17    9   19 1
  18   10   12 1
  19   12   20 1
  20   12   21 1
  21   12   22 1
  22   13   14 1
  23   13   15 1
  24   13   23 1
  25   14   24 1
  26   14   25 1
  27   14   26 1

#	End of record

