#	Name: ASD01913553
#	Creating user name:	WinNT
#	Creation time:	15. 06. 2019 20:01

#	Modifying user name:	WinNT
#	Modification time:	15. 06. 2019 20:01

#	Program:	/corina/corina34_cracker 3.40 0067  02.08.2006

@<TRIPOS>MOLECULE
ASD01913553
  38   40    0    0    0
SMALL
NO_CHARGES


@<TRIPOS>ATOM
   1 C1             0.8672     0.2447    -0.9895 C.ar    
   2 C2             0.1045    -0.0151     0.1447 C.ar    
   3 C3             0.5497     0.4450     1.3759 C.ar    
   4 N4             1.6780     1.1192     1.4740 N.ar    
   5 C5             2.4241     1.3821     0.4187 C.ar    
   6 C6             2.0468     0.9564    -0.8410 C.ar    
   7 C7            -0.9890    -2.0588    -0.0762 C.ar    
   8 C8             0.2419    -2.7081    -0.1093 C.ar    
   9 C9             0.2773    -4.0858    -0.2313 C.ar    
  10 N10           -0.8330    -4.7868    -0.3164 N.ar    
  11 C11           -2.0291    -4.2093    -0.2890 C.ar    
  12 C12           -2.1461    -2.8287    -0.1679 C.ar    
  13 C13           -3.2492    -5.0434    -0.3887 C.2     
  14 N14           -3.1429    -6.3817    -0.5067 N.am    
  15 O15           -1.0600    -0.7090     0.0482 O.3     
  16 C16           -4.2878    -7.1752    -0.4946 C.ar    
  17 O17           -4.3460    -4.5208    -0.3642 O.2     
  18 C18           -4.1654    -8.5588    -0.4991 C.ar    
  19 C19           -5.3101    -9.3393    -0.4870 C.ar    
  20 C20           -6.5427    -8.7069    -0.4708 C.ar    
  21 C21           -6.5937    -7.3195    -0.4672 C.ar    
  22 N22           -5.4820    -6.6025    -0.4736 N.ar    
  23 O23           -7.7966    -6.6923    -0.4519 O.3     
  24 C24           -7.7833    -5.2634    -0.4489 C.3     
  25 H25            0.5499    -0.1038    -1.9612 H       
  26 H26           -0.0346     0.2490     2.2628 H       
  27 H27            3.3421     1.9379     0.5405 H       
  28 H28            2.6642     1.1760    -1.6995 H       
  29 H29            1.1594    -2.1424    -0.0409 H       
  30 H30            1.2303    -4.5933    -0.2573 H       
  31 H31           -3.1192    -2.3608    -0.1454 H       
  32 H32           -2.2691    -6.7925    -0.5999 H       
  33 H33           -3.1893    -9.0208    -0.5122 H       
  34 H34           -5.2430   -10.4172    -0.4905 H       
  35 H35           -7.4538    -9.2868    -0.4615 H       
  36 H36           -7.2557    -4.9068     0.4358 H       
  37 H37           -7.2764    -4.9029    -1.3441 H       
  38 H38           -8.8074    -4.8905    -0.4362 H       
@<TRIPOS>BOND
   1    1    2 ar
   2    1    6 ar
   3    1   25 1
   4    2    3 ar
   5    2   15 1
   6    3    4 ar
   7    3   26 1
   8    4    5 ar
   9    5    6 ar
  10    5   27 1
  11    6   28 1
  12    7    8 ar
  13    7   12 ar
  14    7   15 1
  15    8    9 ar
  16    8   29 1
  17    9   10 ar
  18    9   30 1
  19   10   11 ar
  20   11   12 ar
  21   11   13 1
  22   12   31 1
  23   13   14 am
  24   13   17 2
  25   14   16 1
  26   14   32 1
  27   16   18 ar
  28   16   22 ar
  29   18   19 ar
  30   18   33 1
  31   19   20 ar
  32   19   34 1
  33   20   21 ar
  34   20   35 1
  35   21   22 ar
  36   21   23 1
  37   23   24 1
  38   24   36 1
  39   24   37 1
  40   24   38 1

#	End of record

