#	Name: ASD03092651
#	Creating user name:	WinNT
#	Creation time:	15. 06. 2019 20:32

#	Modifying user name:	WinNT
#	Modification time:	15. 06. 2019 20:32

#	Program:	/corina/corina34_cracker 3.40 0067  02.08.2006

@<TRIPOS>MOLECULE
ASD03092651
  46   49    0    0    0
SMALL
NO_CHARGES


@<TRIPOS>ATOM
   1 C1             1.0922     1.6365    -0.8821 C.ar    
   2 C2             1.0117     0.2398    -1.0600 C.ar    
   3 C3             1.7592    -0.6023    -0.2065 C.ar    
   4 C4             2.5441    -0.0010     0.7756 C.ar    
   5 C5             2.5633     1.3815     0.8787 C.ar    
   6 N6             1.8588     2.1441     0.0718 N.ar    
   7 N7            -0.3009     1.1568    -2.5762 N.2     
   8 N8             0.2718     2.1941    -1.8307 N.pl3   
   9 C9             0.1304     0.0078    -2.1364 C.2     
  10 C10            1.7099    -2.0725    -0.3502 C.2     
  11 O11            0.6683    -2.6185    -0.6582 O.2     
  12 N12            2.8197    -2.8077    -0.1398 N.am    
  13 C13            3.6148    -4.9133    -1.0295 C.ar    
  14 C14            2.7556    -4.2035    -0.2002 C.ar    
  15 C15            1.8299    -4.9024     0.5704 C.ar    
  16 C16            1.8052    -6.2844     0.4766 C.ar    
  17 C17            2.6927    -6.9195    -0.3718 C.ar    
  18 N18            3.5576    -6.2286    -1.0886 N.ar    
  19 C19            0.8788    -4.1735     1.4843 C.3     
  20 C20            4.6182    -4.1715    -1.8745 C.3     
  21 C21            0.0085     4.4418    -1.0061 C.2     
  22 C22            0.0457     3.5693    -2.0207 C.2     
  23 C23           -0.1559     4.1285    -3.2754 C.2     
  24 C24           -0.3554     5.4467    -3.2769 C.2     
  25 S25           -0.2941     6.0583    -1.6293 S.3     
  26 C26            3.4133     2.0267     1.9427 C.3     
  27 C27           -0.2556    -1.3432    -2.6813 C.3     
  28 H28            3.1315    -0.6062     1.4501 H       
  29 H29            3.6628    -2.3688     0.0535 H       
  30 H30            1.1008    -6.8590     1.0598 H       
  31 H31            2.6776    -7.9967    -0.4487 H       
  32 H32           -0.0801    -4.0442     0.9824 H       
  33 H33            0.7361    -4.7524     2.3967 H       
  34 H34            1.2924    -3.1966     1.7347 H       
  35 H35            5.5727    -4.1270    -1.3501 H       
  36 H36            4.7489    -4.6913    -2.8236 H       
  37 H37            4.2586    -3.1595    -2.0610 H       
  38 H38            0.1396     4.1908     0.0361 H       
  39 H39           -0.1512     3.5405    -4.1813 H       
  40 H40           -0.5282     6.0482    -4.1572 H       
  41 H41            4.4093     2.2201     1.5444 H       
  42 H42            2.9568     2.9669     2.2519 H       
  43 H43            3.4887     1.3597     2.8015 H       
  44 H44           -1.0714    -1.7550    -2.0872 H       
  45 H45           -0.5774    -1.2386    -3.7174 H       
  46 H46            0.6030    -2.0131    -2.6333 H       
@<TRIPOS>BOND
   1    1    2 ar
   2    1    6 ar
   3    1    8 1
   4    2    3 ar
   5    2    9 1
   6    3    4 ar
   7    3   10 1
   8    4    5 ar
   9    4   28 1
  10    5    6 ar
  11    5   26 1
  12    7    8 1
  13    7    9 2
  14    8   22 1
  15    9   27 1
  16   10   11 2
  17   10   12 am
  18   12   14 1
  19   12   29 1
  20   13   14 ar
  21   13   18 ar
  22   13   20 1
  23   14   15 ar
  24   15   16 ar
  25   15   19 1
  26   16   17 ar
  27   16   30 1
  28   17   18 ar
  29   17   31 1
  30   19   32 1
  31   19   33 1
  32   19   34 1
  33   20   35 1
  34   20   36 1
  35   20   37 1
  36   21   22 2
  37   21   25 1
  38   21   38 1
  39   22   23 1
  40   23   24 2
  41   23   39 1
  42   24   25 1
  43   24   40 1
  44   26   41 1
  45   26   42 1
  46   26   43 1
  47   27   44 1
  48   27   45 1
  49   27   46 1

#	End of record

