#	Name: ASD01811055
#	Creating user name:	WinNT
#	Creation time:	15. 06. 2019 19:25

#	Modifying user name:	WinNT
#	Modification time:	15. 06. 2019 19:25

#	Program:	/corina/corina34_cracker 3.40 0067  02.08.2006

@<TRIPOS>MOLECULE
ASD01811055
  45   48    0    0    0
SMALL
NO_CHARGES


@<TRIPOS>ATOM
   1 C1            -0.0168     1.3904     0.0097 C.ar    
   2 C2             0.0021    -0.0041     0.0020 C.ar    
   3 C3            -1.2650    -0.8073    -0.0063 C.3     
   4 C4            -2.4664    -0.0222     0.4066 C.2     
   5 C5            -2.5143     1.3188     0.4231 C.2     
   6 C6            -1.3166     2.0987     0.0386 C.2     
   7 C7            -1.4940    -1.3480    -1.4191 C.3     
   8 C8            -2.6951    -2.2581    -1.4202 C.ar    
   9 C9            -3.9534    -1.7380    -1.6640 C.ar    
  10 C10           -5.0570    -2.5669    -1.6662 C.ar    
  11 C11           -4.9018    -3.9299    -1.4220 C.ar    
  12 C12           -3.6319    -4.4484    -1.1770 C.ar    
  13 C13           -2.5346    -3.6113    -1.1828 C.ar    
  14 C14           -6.0846    -4.8260    -1.4226 C.ar    
  15 C15           -5.9294    -6.1890    -1.1785 C.ar    
  16 C16           -7.0330    -7.0178    -1.1802 C.ar    
  17 C17           -8.2913    -6.4978    -1.4241 C.ar    
  18 C18           -8.4511    -5.1455    -1.6675 C.ar    
  19 C19           -7.3552    -4.3065    -1.6616 C.ar    
  20 O20           -1.3973     3.2784    -0.2437 O.2     
  21 C21           -3.7546     2.0120     0.8222 C.2     
  22 O22           -4.7359     1.3685     1.1368 O.2     
  23 O23           -3.7987     3.3585     0.8375 O.3     
  24 C24            1.1760     2.1128     0.0022 C.ar    
  25 C25            2.3819     1.4422    -0.0060 C.ar    
  26 C26            2.4012     0.0582    -0.0066 C.ar    
  27 C27            1.2206    -0.6604    -0.0025 C.ar    
  28 H28           -1.1484    -1.6513     0.6735 H       
  29 H29           -3.3490    -0.5659     0.7094 H       
  30 H30           -1.6673    -0.5168    -2.1026 H       
  31 H31           -0.6149    -1.9062    -1.7414 H       
  32 H32           -4.0726    -0.6814    -1.8528 H       
  33 H33           -6.0391    -2.1598    -1.8564 H       
  34 H34           -3.5060    -5.5042    -0.9872 H       
  35 H35           -1.5498    -4.0121    -0.9930 H       
  36 H36           -4.9473    -6.5962    -0.9886 H       
  37 H37           -6.9138    -8.0744    -0.9911 H       
  38 H38           -9.1521    -7.1500    -1.4249 H       
  39 H39           -9.4358    -4.7448    -1.8577 H       
  40 H40           -7.4811    -3.2508    -1.8514 H       
  41 H41           -4.6329     3.7674     1.1058 H       
  42 H42            1.1561     3.1926     0.0024 H       
  43 H43            3.3090     1.9961    -0.0124 H       
  44 H44            3.3463    -0.4644    -0.0101 H       
  45 H45            1.2490    -1.7400    -0.0026 H       
@<TRIPOS>BOND
   1    1    2 ar
   2    1   24 ar
   3    1    6 1
   4    2    3 1
   5    2   27 ar
   6    3    4 1
   7    3    7 1
   8    3   28 1
   9    4    5 2
  10    4   29 1
  11    5    6 1
  12    5   21 1
  13    6   20 2
  14    7    8 1
  15    7   30 1
  16    7   31 1
  17    8    9 ar
  18    8   13 ar
  19    9   10 ar
  20    9   32 1
  21   10   11 ar
  22   10   33 1
  23   11   12 ar
  24   11   14 1
  25   12   13 ar
  26   12   34 1
  27   13   35 1
  28   14   15 ar
  29   14   19 ar
  30   15   16 ar
  31   15   36 1
  32   16   17 ar
  33   16   37 1
  34   17   18 ar
  35   17   38 1
  36   18   19 ar
  37   18   39 1
  38   19   40 1
  39   21   22 2
  40   21   23 1
  41   23   41 1
  42   24   25 ar
  43   24   42 1
  44   25   26 ar
  45   25   43 1
  46   26   27 ar
  47   26   44 1
  48   27   45 1

#	End of record

