#	Name: ASD01912163
#	Creating user name:	WinNT
#	Creation time:	15. 06. 2019 19:59

#	Modifying user name:	WinNT
#	Modification time:	15. 06. 2019 19:59

#	Program:	/corina/corina34_cracker 3.40 0067  02.08.2006

@<TRIPOS>MOLECULE
ASD01912163
  42   45    0    0    0
SMALL
NO_CHARGES


@<TRIPOS>ATOM
   1 C1            -0.0183     1.5107     0.0190 C.3     
   2 C2            -0.0110     0.0037     0.0163 C.2     
   3 O3             0.5366    -0.7860    -0.9128 O.3     
   4 N4             0.3692    -1.9508    -0.6190 N.2     
   5 C5            -0.2900    -2.0400     0.5066 C.2     
   6 N6            -0.5353    -0.7784     0.9268 N.2     
   7 C7            -0.6894    -3.2918     1.1970 C.ar    
   8 C8            -0.3612    -4.5286     0.6466 C.ar    
   9 C9            -0.7355    -5.6906     1.2935 C.ar    
  10 C10           -1.4353    -5.6265     2.4861 C.ar    
  11 C11           -1.7632    -4.4004     3.0360 C.ar    
  12 C12           -1.3889    -3.2338     2.4007 C.ar    
  13 C13            1.4227     2.0710    -0.0077 C.3     
  14 Cl14          -0.3282    -7.2332     0.6094 Cl      
  15 C15            1.3276     3.2974    -0.8883 C.2     
  16 N16            0.1863     3.2697    -1.5978 N.am    
  17 C17           -0.5955     2.0631    -1.3031 C.3     
  18 O18            2.1598     4.1779    -0.9452 O.2     
  19 C19           -0.2061     4.2637    -2.5010 C.ar    
  20 C20            0.5421     5.4258    -2.6233 C.ar    
  21 C21            0.1501     6.4084    -3.5192 C.ar    
  22 C22           -0.9888     6.2279    -4.2911 C.ar    
  23 C23           -1.7332     5.0699    -4.1676 C.ar    
  24 C24           -1.3423     4.0859    -3.2805 C.ar    
  25 O25            0.8805     7.5479    -3.6410 O.3     
  26 C26            0.4179     8.5173    -4.5836 C.3     
  27 H27           -0.5703     1.8946     0.8769 H       
  28 H28            0.1844    -4.5791    -0.2840 H       
  29 H29           -1.7265    -6.5369     2.9887 H       
  30 H30           -2.3092    -4.3559     3.9667 H       
  31 H31           -1.6454    -2.2772     2.8316 H       
  32 H32            1.7434     2.3466     0.9970 H       
  33 H33            2.1075     1.3422    -0.4413 H       
  34 H34           -0.4754     1.3314    -2.1020 H       
  35 H35           -1.6482     2.3169    -1.1782 H       
  36 H36            1.4280     5.5647    -2.0215 H       
  37 H37           -1.2942     6.9934    -4.9890 H       
  38 H38           -2.6194     4.9320    -4.7693 H       
  39 H39           -1.9255     3.1818    -3.1862 H       
  40 H40            1.0897     9.3757    -4.5813 H       
  41 H41            0.3972     8.0748    -5.5795 H       
  42 H42           -0.5861     8.8409    -4.3089 H       
@<TRIPOS>BOND
   1    1    2 1
   2    1   13 1
   3    1   17 1
   4    1   27 1
   5    2    3 1
   6    2    6 2
   7    3    4 1
   8    4    5 2
   9    5    6 1
  10    5    7 1
  11    7    8 ar
  12    7   12 ar
  13    8    9 ar
  14    8   28 1
  15    9   10 ar
  16    9   14 1
  17   10   11 ar
  18   10   29 1
  19   11   12 ar
  20   11   30 1
  21   12   31 1
  22   13   15 1
  23   13   32 1
  24   13   33 1
  25   15   16 am
  26   15   18 2
  27   16   17 1
  28   16   19 1
  29   17   34 1
  30   17   35 1
  31   19   20 ar
  32   19   24 ar
  33   20   21 ar
  34   20   36 1
  35   21   22 ar
  36   21   25 1
  37   22   23 ar
  38   22   37 1
  39   23   24 ar
  40   23   38 1
  41   24   39 1
  42   25   26 1
  43   26   40 1
  44   26   41 1
  45   26   42 1

#	End of record

