#	Name: ASD01890359
#	Creating user name:	WinNT
#	Creation time:	15. 06. 2019 19:50

#	Modifying user name:	WinNT
#	Modification time:	15. 06. 2019 19:50

#	Program:	/corina/corina34_cracker 3.40 0067  02.08.2006

@<TRIPOS>MOLECULE
ASD01890359
  41   42    0    0    0
SMALL
NO_CHARGES


@<TRIPOS>ATOM
   1 C1             0.7989     1.9006    -0.6570 C.2     
   2 N2             1.5281    -0.3442    -0.0928 N.am    
   3 C3             0.3673     0.5476    -0.1528 C.3     
   4 O4             1.9572     2.0995    -0.9374 O.2     
   5 O5            -0.1045     2.8830    -0.7998 O.3     
   6 C6             2.2969    -0.4143     1.0742 C.ar    
   7 C7             3.5350     0.2122     1.1305 C.ar    
   8 C8             4.2912     0.1415     2.2840 C.ar    
   9 C9             3.8169    -0.5525     3.3821 C.ar    
  10 C10            2.5845    -1.1774     3.3292 C.ar    
  11 C11            1.8209    -1.1056     2.1806 C.ar    
  12 C12            1.8555    -1.0971    -1.1617 C.2     
  13 O13            1.1424    -1.0998    -2.1428 O.2     
  14 C14            3.1075    -1.9355    -1.1377 C.3     
  15 C15            3.3156    -2.5663    -2.4905 C.ar    
  16 C16            4.0537    -1.9056    -3.4547 C.ar    
  17 C17            4.2449    -2.4835    -4.6955 C.ar    
  18 C18            3.6974    -3.7235    -4.9726 C.ar    
  19 C19            2.9588    -4.3843    -4.0072 C.ar    
  20 C20            2.7730    -3.8078    -2.7648 C.ar    
  21 Cl21           3.9367    -4.4498    -6.5311 Cl      
  22 C22            0.3823     4.1600    -1.2902 C.3     
  23 C23           -0.7828     5.1471    -1.3864 C.3     
  24 H24           -0.0630     0.6513     0.8432 H       
  25 H25           -0.3781     0.1287    -0.8289 H       
  26 H26            3.9063     0.7537     0.2730 H       
  27 H27            5.2542     0.6285     2.3285 H       
  28 H28            4.4105    -0.6069     4.2827 H       
  29 H29            2.2168    -1.7186     4.1884 H       
  30 H30            0.8566    -1.5904     2.1413 H       
  31 H31            3.9627    -1.3046    -0.8955 H       
  32 H32            3.0072    -2.7167    -0.3842 H       
  33 H33            4.4807    -0.9374    -3.2384 H       
  34 H34            4.8213    -1.9671    -5.4489 H       
  35 H35            2.5312    -5.3523    -4.2228 H       
  36 H36            2.2002    -4.3255    -2.0096 H       
  37 H37            1.1335     4.5505    -0.6037 H       
  38 H38            0.8265     4.0251    -2.2764 H       
  39 H39           -1.5340     4.7567    -2.0730 H       
  40 H40           -1.2270     5.2821    -0.4003 H       
  41 H41           -0.4173     6.1058    -1.7546 H       
@<TRIPOS>BOND
   1    1    3 1
   2    1    4 2
   3    1    5 1
   4    2    3 1
   5    2    6 1
   6    2   12 am
   7    3   24 1
   8    3   25 1
   9    5   22 1
  10    6    7 ar
  11    6   11 ar
  12    7    8 ar
  13    7   26 1
  14    8    9 ar
  15    8   27 1
  16    9   10 ar
  17    9   28 1
  18   10   11 ar
  19   10   29 1
  20   11   30 1
  21   12   13 2
  22   12   14 1
  23   14   15 1
  24   14   31 1
  25   14   32 1
  26   15   16 ar
  27   15   20 ar
  28   16   17 ar
  29   16   33 1
  30   17   18 ar
  31   17   34 1
  32   18   19 ar
  33   18   21 1
  34   19   20 ar
  35   19   35 1
  36   20   36 1
  37   22   23 1
  38   22   37 1
  39   22   38 1
  40   23   39 1
  41   23   40 1
  42   23   41 1

#	End of record

