#	Name: ASD01880344
#	Creating user name:	WinNT
#	Creation time:	15. 06. 2019 19:40

#	Modifying user name:	WinNT
#	Modification time:	15. 06. 2019 19:40

#	Program:	/corina/corina34_cracker 3.40 0067  02.08.2006

@<TRIPOS>MOLECULE
ASD01880344
  43   45    0    0    0
SMALL
NO_CHARGES


@<TRIPOS>ATOM
   1 C1            -0.0158     1.3166     0.0093 C.ar    
   2 N2             0.0021    -0.0041     0.0020 N.ar    
   3 C3            -1.1218    -0.7055     0.0094 C.ar    
   4 C4            -2.3611    -0.0158     0.0254 C.ar    
   5 C5            -2.3234     1.3812     0.0325 C.ar    
   6 N6            -1.1363     2.0007     0.0291 N.ar    
   7 C7            -3.7205    -0.5227     0.0357 C.2     
   8 C8            -4.6572     0.4056     0.0497 C.2     
   9 S9            -3.9623     2.0156     0.0517 S.3     
  10 C10           -6.1367     0.1192     0.0623 C.3     
  11 N11           -1.0871    -2.0883     0.0012 N.pl3   
  12 C12            0.1995    -2.7886    -0.0158 C.3     
  13 C13           -0.0423    -4.2994    -0.0220 C.3     
  14 C14            2.0853    -4.8642    -1.1730 C.2     
  15 C15            1.4573    -4.8220    -2.3494 C.2     
  16 C16           -0.0123    -4.9338    -2.3967 C.2     
  17 C17           -0.7269    -4.6908    -1.3045 C.2     
  18 C18            1.2956    -5.0277     0.0987 C.3     
  19 O19            2.1684    -4.6762    -3.4983 O.3     
  20 C20            3.5883    -4.5738    -3.3738 C.3     
  21 C21            1.2933     2.0630     0.0008 C.3     
  22 C22            4.2119    -4.4163    -4.7621 C.3     
  23 H23           -3.9477    -1.5785     0.0318 H       
  24 H24           -6.4835     0.0446     1.0929 H       
  25 H25           -6.6674     0.9266    -0.4421 H       
  26 H26           -6.3292    -0.8209    -0.4548 H       
  27 H27           -1.9147    -2.5942     0.0067 H       
  28 H28            0.7553    -2.5060    -0.9099 H       
  29 H29            0.7733    -2.5161     0.8700 H       
  30 H30           -0.6762    -4.5678     0.8231 H       
  31 H31            3.1613    -4.7813    -1.1328 H       
  32 H32           -0.5055    -5.2119    -3.3164 H       
  33 H33           -1.8032    -4.7745    -1.3360 H       
  34 H34            1.8610    -4.6106     0.9321 H       
  35 H35            1.1159    -6.0875     0.2794 H       
  36 H36            3.8379    -3.7064    -2.7628 H       
  37 H37            3.9775    -5.4755    -2.9009 H       
  38 H38            1.5991     2.2485    -1.0289 H       
  39 H39            1.1731     3.0133     0.5209 H       
  40 H40            2.0546     1.4670     0.5042 H       
  41 H41            3.9623    -5.2838    -5.3730 H       
  42 H42            3.8227    -3.5147    -5.2350 H       
  43 H43            5.2950    -4.3382    -4.6671 H       
@<TRIPOS>BOND
   1    1    2 ar
   2    1   21 1
   3    1    6 ar
   4    2    3 ar
   5    3    4 ar
   6    3   11 1
   7    4    5 ar
   8    4    7 1
   9    5    6 ar
  10    5    9 1
  11    7    8 2
  12    7   23 1
  13    8    9 1
  14    8   10 1
  15   10   24 1
  16   10   25 1
  17   10   26 1
  18   11   12 1
  19   11   27 1
  20   12   13 1
  21   12   28 1
  22   12   29 1
  23   13   17 1
  24   13   18 1
  25   13   30 1
  26   14   15 2
  27   14   18 1
  28   14   31 1
  29   15   16 1
  30   15   19 1
  31   16   17 2
  32   16   32 1
  33   17   33 1
  34   18   34 1
  35   18   35 1
  36   19   20 1
  37   20   22 1
  38   20   36 1
  39   20   37 1
  40   21   38 1
  41   21   39 1
  42   21   40 1
  43   22   41 1
  44   22   42 1
  45   22   43 1

#	End of record

