#	Name: ASD01150359
#	Creating user name:	WinNT
#	Creation time:	15. 06. 2019 19:04

#	Modifying user name:	WinNT
#	Modification time:	15. 06. 2019 19:04

#	Program:	/corina/corina34_cracker 3.40 0067  02.08.2006

@<TRIPOS>MOLECULE
ASD01150359
  48   51    0    0    0
SMALL
NO_CHARGES


@<TRIPOS>ATOM
   1 C1             2.0699     1.2053     0.9468 C.ar    
   2 C2             2.0529    -0.1510     0.6863 C.ar    
   3 C3             1.2125    -0.6606    -0.2852 C.ar    
   4 C4             0.3817     0.1903    -1.0031 C.ar    
   5 C5             0.3958     1.5533    -0.7436 C.ar    
   6 C6             1.2408     2.0620     0.2325 C.ar    
   7 N7             1.2579     3.4358     0.4976 N.am    
   8 C8             0.0974     4.0899     0.6804 C.2     
   9 N9             0.0768     5.4111     0.9371 N.am    
  10 C10            1.2328     6.1025     1.0145 C.2     
  11 C11            2.5056     5.3928     0.8155 C.2     
  12 N12            2.4831     4.1085     0.5743 N.2     
  13 O13            3.6863     6.0608     0.8867 O.3     
  14 O14            1.2225     7.2973     1.2454 O.2     
  15 C15           -1.2019     6.0989     1.1322 C.3     
  16 O16           -0.9512     3.4776     0.6123 O.2     
  17 N17           -0.4683    -0.3266    -1.9871 N.am    
  18 C18           -1.0411    -1.5345    -1.8162 C.2     
  19 C19           -2.0383    -2.0450    -2.8242 C.3     
  20 O20           -0.7541    -2.2107    -0.8511 O.2     
  21 C21           -1.5728     6.0651     2.5924 C.ar    
  22 C22           -1.1608     7.0824     3.4323 C.ar    
  23 C23           -1.4983     7.0557     4.7730 C.ar    
  24 C24           -2.2508     6.0080     5.2775 C.ar    
  25 C25           -2.6665     4.9828     4.4309 C.ar    
  26 C26           -2.3295     5.0191     3.0879 C.ar    
  27 C27            4.8769     5.2976     0.6814 C.3     
  28 O28           -2.7090     5.7467     6.5365 O.3     
  29 C29           -3.7512     4.7671     6.3707 C.3     
  30 O30           -3.3850     4.0796     5.1597 O.3     
  31 F31           -3.7693     3.8807     7.4529 F       
  32 F32           -4.9943     5.3919     6.2245 F       
  33 H33            2.7249     1.5999     1.7095 H       
  34 H34            2.6981    -0.8147     1.2427 H       
  35 H35            1.2018    -1.7216    -0.4867 H       
  36 H36           -0.2489     2.2169    -1.3006 H       
  37 H37           -1.1111     7.1344     0.8042 H       
  38 H38           -1.9757     5.5996     0.5490 H       
  39 H39           -0.6453     0.1845    -2.7923 H       
  40 H40           -2.1670    -1.3055    -3.6146 H       
  41 H41           -1.6743    -2.9778    -3.2551 H       
  42 H42           -2.9948    -2.2210    -2.3321 H       
  43 H43           -0.5736     7.8999     3.0407 H       
  44 H44           -1.1746     7.8518     5.4271 H       
  45 H45           -2.6508     4.2259     2.4292 H       
  46 H46            4.8539     4.8485    -0.3115 H       
  47 H47            5.7458     5.9504     0.7649 H       
  48 H48            4.9391     4.5119     1.4342 H       
@<TRIPOS>BOND
   1    1    2 ar
   2    1    6 ar
   3    1   33 1
   4    2    3 ar
   5    2   34 1
   6    3    4 ar
   7    3   35 1
   8    4    5 ar
   9    4   17 1
  10    5    6 ar
  11    5   36 1
  12    6    7 1
  13    7    8 am
  14    7   12 1
  15    8    9 am
  16    8   16 2
  17    9   10 am
  18    9   15 1
  19   10   11 1
  20   10   14 2
  21   11   12 2
  22   11   13 1
  23   13   27 1
  24   15   21 1
  25   15   37 1
  26   15   38 1
  27   17   18 am
  28   17   39 1
  29   18   19 1
  30   18   20 2
  31   19   40 1
  32   19   41 1
  33   19   42 1
  34   21   22 ar
  35   21   26 ar
  36   22   23 ar
  37   22   43 1
  38   23   24 ar
  39   23   44 1
  40   24   25 ar
  41   24   28 1
  42   25   26 ar
  43   25   30 1
  44   26   45 1
  45   27   46 1
  46   27   47 1
  47   27   48 1
  48   28   29 1
  49   29   30 1
  50   29   31 1
  51   29   32 1

#	End of record

