#	Name: ASD01880901
#	Creating user name:	WinNT
#	Creation time:	15. 06. 2019 19:41

#	Modifying user name:	WinNT
#	Modification time:	15. 06. 2019 19:41

#	Program:	/corina/corina34_cracker 3.40 0067  02.08.2006

@<TRIPOS>MOLECULE
ASD01880901
  53   56    0    0    0
SMALL
NO_CHARGES


@<TRIPOS>ATOM
   1 N1             0.0644     1.3753    -0.6402 N.ar    
   2 C2             0.1101     0.0797    -0.8744 C.ar    
   3 N3             1.2166    -0.6178    -0.7139 N.ar    
   4 C4             2.3385    -0.0328    -0.3053 C.ar    
   5 C5             2.3322     1.3334    -0.0473 C.ar    
   6 C6             1.1448     2.0329    -0.2289 C.ar    
   7 C7             3.5806     2.0377     0.4180 C.3     
   8 O8             4.3151     2.5038    -0.7157 O.3     
   9 C9             5.4745     3.1647    -0.4694 C.ar    
  10 C10            6.2390     3.6454    -1.5280 C.ar    
  11 C11            7.4114     4.3142    -1.2774 C.ar    
  12 C12            7.8438     4.5163     0.0374 C.ar    
  13 C13            7.0720     4.0318     1.0970 C.ar    
  14 C14            5.8942     3.3659     0.8402 C.ar    
  15 C15            8.4501     4.9474    -2.1693 C.3     
  16 N16            9.4717     5.5056    -1.2761 N.am    
  17 C17            9.1180     5.2546    -0.0040 C.2     
  18 O18            9.7584     5.5897     0.9737 O.2     
  19 C19            7.5257     4.2417     2.5187 C.3     
  20 O20            1.0889     3.3660     0.0093 O.3     
  21 C21           -0.1201     3.9801    -0.0804 C.ar    
  22 C22           -1.0510     3.8339     0.9379 C.ar    
  23 C23           -2.2793     4.4591     0.8443 C.ar    
  24 C24           -2.5813     5.2300    -0.2631 C.ar    
  25 C25           -1.6556     5.3769    -1.2796 C.ar    
  26 C26           -0.4235     4.7588    -1.1879 C.ar    
  27 C27           10.3776     7.7152    -1.8039 C.3     
  28 C28           10.6789     6.2186    -1.7011 C.3     
  29 O29            3.4719    -0.7579    -0.1424 O.3     
  30 C30            3.3944    -2.1559    -0.4282 C.3     
  31 H31           -0.7847    -0.4252    -1.2072 H       
  32 H32            3.3069     2.8848     1.0469 H       
  33 H33            4.1970     1.3444     0.9903 H       
  34 H34            5.9107     3.4923    -2.5454 H       
  35 H35            5.2981     2.9920     1.6594 H       
  36 H36            8.8932     4.1947    -2.8213 H       
  37 H37            7.9990     5.7411    -2.7649 H       
  38 H38            7.1214     5.1818     2.8941 H       
  39 H39            7.1690     3.4194     3.1390 H       
  40 H40            8.6146     4.2756     2.5514 H       
  41 H41           -0.8157     3.2316     1.8030 H       
  42 H42           -3.0044     4.3454     1.6366 H       
  43 H43           -3.5422     5.7180    -0.3344 H       
  44 H44           -1.8941     5.9793    -2.1437 H       
  45 H45            0.2994     4.8741    -1.9820 H       
  46 H46           11.2758     8.2457    -2.1201 H       
  47 H47            9.5843     7.8768    -2.5337 H       
  48 H48           10.0582     8.0892    -0.8312 H       
  49 H49           11.4722     6.0570    -0.9713 H       
  50 H50           10.9983     5.8446    -2.6738 H       
  51 H51            2.6539    -2.6195     0.2235 H       
  52 H52            3.1026    -2.2984    -1.4688 H       
  53 H53            4.3676    -2.6162    -0.2575 H       
@<TRIPOS>BOND
   1    1    2 ar
   2    1    6 ar
   3    2    3 ar
   4    2   31 1
   5    3    4 ar
   6    4    5 ar
   7    4   29 1
   8    5    6 ar
   9    5    7 1
  10    6   20 1
  11    7    8 1
  12    7   32 1
  13    7   33 1
  14    8    9 1
  15    9   10 ar
  16    9   14 ar
  17   10   11 ar
  18   10   34 1
  19   11   12 ar
  20   11   15 1
  21   12   13 ar
  22   12   17 1
  23   13   14 ar
  24   13   19 1
  25   14   35 1
  26   15   16 1
  27   15   36 1
  28   15   37 1
  29   16   17 am
  30   16   28 1
  31   17   18 2
  32   19   38 1
  33   19   39 1
  34   19   40 1
  35   20   21 1
  36   21   22 ar
  37   21   26 ar
  38   22   23 ar
  39   22   41 1
  40   23   24 ar
  41   23   42 1
  42   24   25 ar
  43   24   43 1
  44   25   26 ar
  45   25   44 1
  46   26   45 1
  47   27   28 1
  48   27   46 1
  49   27   47 1
  50   27   48 1
  51   28   49 1
  52   28   50 1
  53   29   30 1
  54   30   51 1
  55   30   52 1
  56   30   53 1

#	End of record

