#	Name: ASD01914753
#	Creating user name:	WinNT
#	Creation time:	15. 06. 2019 20:04

#	Modifying user name:	WinNT
#	Modification time:	15. 06. 2019 20:04

#	Program:	/corina/corina34_cracker 3.40 0067  02.08.2006

@<TRIPOS>MOLECULE
ASD01914753
  38   41    0    0    0
SMALL
NO_CHARGES


@<TRIPOS>ATOM
   1 N1            -0.0263     1.3497     0.2459 N.am    
   2 C2             0.0017    -0.0050     0.0139 C.2     
   3 C3            -1.2637    -0.7043    -0.2249 C.2     
   4 C4            -2.4040     0.0122    -0.2068 C.2     
   5 N5            -2.3602     1.3672     0.0319 N.am    
   6 C6            -1.1989     2.0056     0.2555 C.2     
   7 C7             1.2749     1.7468     0.4357 C.2     
   8 C8             2.0449     0.6474     0.3169 C.2     
   9 N9             1.2547    -0.4041     0.0613 N.2     
  10 C10            3.5456     0.6072     0.4487 C.3     
  11 O11           -1.2088     3.2037     0.4623 O.2     
  12 C12           -3.5521     2.0955     0.0468 C.ar    
  13 O13            4.0351     1.9218     0.7212 O.3     
  14 C14            5.3788     2.0614     0.8695 C.ar    
  15 C15            5.9225     3.3097     1.1355 C.ar    
  16 C16            6.2084     0.9548     0.7609 C.ar    
  17 C17            7.5739     1.0992     0.9126 C.ar    
  18 C18            8.1138     2.3452     1.1729 C.ar    
  19 C19            7.2886     3.4488     1.2864 C.ar    
  20 N20           -3.5115     3.4180     0.0480 N.ar    
  21 C21           -4.6125     4.1447     0.0613 C.ar    
  22 C22           -5.8580     3.5435     0.0746 C.ar    
  23 C23           -5.9426     2.1560     0.0738 C.ar    
  24 C24           -4.7688     1.4236     0.0543 C.ar    
  25 F25           -6.9798     4.2962     0.0887 F       
  26 H26           -1.2814    -1.7679    -0.4111 H       
  27 H27           -3.3518    -0.4759    -0.3798 H       
  28 H28            1.6163     2.7506     0.6413 H       
  29 H29            3.8208    -0.0596     1.2658 H       
  30 H30            3.9823     0.2423    -0.4809 H       
  31 H31            5.2784     4.1720     1.2242 H       
  32 H32            5.7871    -0.0188     0.5583 H       
  33 H33            8.2202     0.2381     0.8281 H       
  34 H34            9.1816     2.4560     1.2915 H       
  35 H35            7.7128     4.4210     1.4894 H       
  36 H36           -4.5403     5.2223     0.0622 H       
  37 H37           -6.9025     1.6611     0.0844 H       
  38 H38           -4.7975     0.3440     0.0528 H       
@<TRIPOS>BOND
   1    1    2 1
   2    1    7 1
   3    1    6 am
   4    2    3 1
   5    2    9 2
   6    3    4 2
   7    3   26 1
   8    4    5 1
   9    4   27 1
  10    5    6 am
  11    5   12 1
  12    6   11 2
  13    7    8 2
  14    7   28 1
  15    8    9 1
  16    8   10 1
  17   10   13 1
  18   10   29 1
  19   10   30 1
  20   12   20 ar
  21   12   24 ar
  22   13   14 1
  23   14   15 ar
  24   14   16 ar
  25   15   19 ar
  26   15   31 1
  27   16   17 ar
  28   16   32 1
  29   17   18 ar
  30   17   33 1
  31   18   19 ar
  32   18   34 1
  33   19   35 1
  34   20   21 ar
  35   21   22 ar
  36   21   36 1
  37   22   23 ar
  38   22   25 1
  39   23   24 ar
  40   23   37 1
  41   24   38 1

#	End of record

