#	Name: ASD01890564
#	Creating user name:	WinNT
#	Creation time:	15. 06. 2019 19:51

#	Modifying user name:	WinNT
#	Modification time:	15. 06. 2019 19:51

#	Program:	/corina/corina34_cracker 3.40 0067  02.08.2006

@<TRIPOS>MOLECULE
ASD01890564
  40   42    0    0    0
SMALL
NO_CHARGES


@<TRIPOS>ATOM
   1 C1            -0.8412    -0.1095    -1.0018 C.2     
   2 C2            -0.0670     0.1227     0.2701 C.3     
   3 C3             1.2756    -0.6066     0.1903 C.3     
   4 C4             2.1216    -0.2532     1.4152 C.3     
   5 O5            -0.3293    -0.7043    -1.9206 O.2     
   6 O6            -2.1013     0.3395    -1.1120 O.3     
   7 C7             1.0379    -2.0944     0.1563 C.ar    
   8 C8             1.5815    -2.8582    -0.8598 C.ar    
   9 C9             1.3634    -4.2227    -0.8910 C.ar    
  10 C10            0.6022    -4.8238     0.0942 C.ar    
  11 C11            0.0596    -4.0603     1.1105 C.ar    
  12 C12            0.2813    -2.6961     1.1441 C.ar    
  13 C13            2.4112    -2.2030    -1.9337 C.3     
  14 C14            2.4754     1.2112     1.3757 C.2     
  15 N15            3.0797     1.8055     0.3886 N.2     
  16 C16            3.2430     3.1218     0.6794 C.ar    
  17 C17            2.6870     3.3319     1.9528 C.ar    
  18 N18            2.2043     2.1052     2.3645 N.pl3   
  19 C19            3.8146     4.1960    -0.0072 C.ar    
  20 C20            3.8275     5.4464     0.5689 C.ar    
  21 C21            3.2769     5.6484     1.8269 C.ar    
  22 C22            2.7085     4.5994     2.5175 C.ar    
  23 I23            4.6853     7.0565    -0.4610 I       
  24 H24            0.1069     1.1909     0.3998 H       
  25 H25           -0.6375    -0.2580     1.1173 H       
  26 H26            1.8014    -0.3019    -0.7145 H       
  27 H27            1.5549    -0.4657     2.3218 H       
  28 H28            3.0350    -0.8479     1.4099 H       
  29 H29           -2.5575     0.1667    -1.9469 H       
  30 H30            1.7874    -4.8193    -1.6852 H       
  31 H31            0.4312    -5.8899     0.0694 H       
  32 H32           -0.5354    -4.5299     1.8800 H       
  33 H33           -0.1396    -2.1000     1.9404 H       
  34 H34            3.4385    -2.0969    -1.5851 H       
  35 H35            2.3944    -2.8193    -2.8326 H       
  36 H36            2.0009    -1.2189    -2.1602 H       
  37 H37            1.7572     1.9157     3.2042 H       
  38 H38            4.2451     4.0459    -0.9863 H       
  39 H39            3.2938     6.6342     2.2677 H       
  40 H40            2.2818     4.7633     3.4960 H       
@<TRIPOS>BOND
   1    1    2 1
   2    1    5 2
   3    1    6 1
   4    2    3 1
   5    2   24 1
   6    2   25 1
   7    3    4 1
   8    3    7 1
   9    3   26 1
  10    4   14 1
  11    4   27 1
  12    4   28 1
  13    6   29 1
  14    7    8 ar
  15    7   12 ar
  16    8    9 ar
  17    8   13 1
  18    9   10 ar
  19    9   30 1
  20   10   11 ar
  21   10   31 1
  22   11   12 ar
  23   11   32 1
  24   12   33 1
  25   13   34 1
  26   13   35 1
  27   13   36 1
  28   14   15 2
  29   14   18 1
  30   15   16 1
  31   16   17 ar
  32   16   19 ar
  33   17   18 1
  34   17   22 ar
  35   18   37 1
  36   19   20 ar
  37   19   38 1
  38   20   21 ar
  39   20   23 1
  40   21   22 ar
  41   21   39 1
  42   22   40 1

#	End of record

