#	Name: ASD01410153
#	Creating user name:	WinNT
#	Creation time:	15. 06. 2019 19:16

#	Modifying user name:	WinNT
#	Modification time:	15. 06. 2019 19:16

#	Program:	/corina/corina34_cracker 3.40 0067  02.08.2006

@<TRIPOS>MOLECULE
ASD01410153
  44   47    0    0    0
SMALL
NO_CHARGES


@<TRIPOS>ATOM
   1 C1            -0.0704     1.4321    -0.5093 C.ar    
   2 C2            -0.0020     0.0516    -0.2768 C.ar    
   3 C3            -1.1340    -0.6620    -0.0092 C.ar    
   4 C4            -2.3684    -0.0240     0.0348 C.ar    
   5 C5            -2.4565     1.3627    -0.1963 C.ar    
   6 C6            -1.2964     2.0898    -0.4634 C.ar    
   7 N7            -3.6555    -0.4559     0.2723 N.pl3   
   8 C8            -4.4748     0.6378     0.1844 C.2     
   9 N9            -3.7648     1.7036    -0.0911 N.2     
  10 C10           -2.8524    -2.7544     0.5030 C.3     
  11 C11           -3.2856    -4.1898     0.8077 C.3     
  12 C12           -3.9020    -4.2503     2.2067 C.3     
  13 C13           -5.1199    -3.3262     2.2679 C.3     
  14 C14           -4.6867    -1.8908     1.9631 C.3     
  15 C15           -4.0703    -1.8303     0.5641 C.3     
  16 C16           -5.9418     0.6186     0.3720 C.ar    
  17 C17           -6.5918     1.7217     0.9268 C.ar    
  18 C18           -7.9604     1.6974     1.0992 C.ar    
  19 C19           -8.6882     0.5823     0.7238 C.ar    
  20 C20           -8.0497    -0.5149     0.1736 C.ar    
  21 C21           -6.6824    -0.5005    -0.0103 C.ar    
  22 C22            1.1614     2.1914    -0.7975 C.2     
  23 O23            1.1041     3.3881    -0.9993 O.2     
  24 O24            2.3498     1.5577    -0.8369 O.3     
  25 H25            0.9533    -0.4510    -0.3101 H       
  26 H26           -1.0709    -1.7254     0.1686 H       
  27 H27           -1.3502     3.1535    -0.6424 H       
  28 H28           -2.1153    -2.4333     1.2390 H       
  29 H29           -2.4132    -2.7113    -0.4937 H       
  30 H30           -4.0226    -4.5109     0.0717 H       
  31 H31           -2.4179    -4.8481     0.7642 H       
  32 H32           -4.2106    -5.2730     2.4239 H       
  33 H33           -3.1649    -3.9292     2.9427 H       
  34 H34           -5.8569    -3.6474     1.5318 H       
  35 H35           -5.5590    -3.3694     3.2645 H       
  36 H36           -5.5543    -1.2325     2.0066 H       
  37 H37           -3.9496    -1.5697     2.6991 H       
  38 H38           -4.8073    -2.1514    -0.1719 H       
  39 H39           -6.0246     2.5924     1.2209 H       
  40 H40           -8.4647     2.5505     1.5285 H       
  41 H41           -9.7594     0.5680     0.8612 H       
  42 H42           -8.6234    -1.3826    -0.1168 H       
  43 H43           -6.1852    -1.3575    -0.4402 H       
  44 H44            3.1288     2.0972    -1.0296 H       
@<TRIPOS>BOND
   1    1    2 ar
   2    1   22 1
   3    1    6 ar
   4    2    3 ar
   5    2   25 1
   6    3    4 ar
   7    3   26 1
   8    4    5 ar
   9    4    7 1
  10    5    6 ar
  11    5    9 1
  12    6   27 1
  13    7    8 1
  14    7   15 1
  15    8    9 2
  16    8   16 1
  17   10   11 1
  18   10   15 1
  19   10   28 1
  20   10   29 1
  21   11   12 1
  22   11   30 1
  23   11   31 1
  24   12   13 1
  25   12   32 1
  26   12   33 1
  27   13   14 1
  28   13   34 1
  29   13   35 1
  30   14   15 1
  31   14   36 1
  32   14   37 1
  33   15   38 1
  34   16   17 ar
  35   16   21 ar
  36   17   18 ar
  37   17   39 1
  38   18   19 ar
  39   18   40 1
  40   19   20 ar
  41   19   41 1
  42   20   21 ar
  43   20   42 1
  44   21   43 1
  45   22   23 2
  46   22   24 1
  47   24   44 1

#	End of record

