#	Name: ASD03090779
#	Creating user name:	WinNT
#	Creation time:	15. 06. 2019 20:29

#	Modifying user name:	WinNT
#	Modification time:	15. 06. 2019 20:29

#	Program:	/corina/corina34_cracker 3.40 0067  02.08.2006

@<TRIPOS>MOLECULE
ASD03090779
  53   55    0    0    0
SMALL
NO_CHARGES


@<TRIPOS>ATOM
   1 C1            -0.0187     1.5258     0.0104 C.3     
   2 C2             0.0021    -0.0041     0.0020 C.3     
   3 C3             0.7182    -0.4975    -1.2568 C.3     
   4 C4             0.7390    -2.0273    -1.2652 C.3     
   5 C5             1.4551    -2.5207    -2.5240 C.3     
   6 C6             1.4755    -4.0276    -2.5323 C.ar    
   7 C7             0.4424    -4.7275    -3.1249 C.ar    
   8 C8             0.4654    -6.1145    -3.1340 C.ar    
   9 O9            -0.5502    -6.8053    -3.7156 O.3     
  10 C10            1.5218    -6.7977    -2.5517 C.ar    
  11 C11            2.5572    -6.0962    -1.9487 C.ar    
  12 C12            2.5288    -4.7048    -1.9530 C.ar    
  13 O13            3.6003    -6.7194    -1.3423 O.3     
  14 C14            3.7852    -8.1266    -1.5302 C.3     
  15 C15            2.4176    -8.7930    -1.4165 C.3     
  16 C16            1.5555    -8.2954    -2.5812 C.3     
  17 C17            0.2094    -8.9382    -2.5100 C.2     
  18 C18            0.0238   -10.0757    -1.9056 C.2     
  19 C19           -1.3702   -10.6480    -1.9168 C.3     
  20 C20            1.0866   -10.8618    -1.1997 C.3     
  21 C21            2.4863   -10.3146    -1.5040 C.3     
  22 C22            4.3776    -8.3914    -2.9158 C.3     
  23 C23            4.7209    -8.6754    -0.4513 C.3     
  24 H24            1.0039     1.9031     0.0027 H       
  25 H25           -0.5459     1.8868    -0.8726 H       
  26 H26           -0.5289     1.8773     0.9072 H       
  27 H27            0.5293    -0.3651     0.8851 H       
  28 H28           -1.0205    -0.3814     0.0098 H       
  29 H29            0.1910    -0.1364    -2.1398 H       
  30 H30            1.7408    -0.1202    -1.2645 H       
  31 H31            1.2661    -2.3884    -0.3821 H       
  32 H32           -0.2836    -2.4046    -1.2575 H       
  33 H33            0.9279    -2.1597    -3.4071 H       
  34 H34            2.4777    -2.1435    -2.5317 H       
  35 H35           -0.3809    -4.1964    -3.5794 H       
  36 H36           -0.4113    -6.9931    -4.6540 H       
  37 H37            3.3334    -4.1509    -1.4923 H       
  38 H38            1.9524    -8.5072    -0.4731 H       
  39 H39            2.0265    -8.6092    -3.5128 H       
  40 H40           -0.6331    -8.4455    -2.9725 H       
  41 H41           -2.0343    -9.9766    -2.4612 H       
  42 H42           -1.3590   -11.6225    -2.4050 H       
  43 H43           -1.7257   -10.7589    -0.8924 H       
  44 H44            0.9110   -10.8131    -0.1250 H       
  45 H45            1.0331   -11.9019    -1.5213 H       
  46 H46            2.7903   -10.6137    -2.5071 H       
  47 H47            3.1988   -10.6951    -0.7722 H       
  48 H48            5.3400    -7.8870    -3.0019 H       
  49 H49            4.5160    -9.4639    -3.0528 H       
  50 H50            3.6989    -8.0121    -3.6797 H       
  51 H51            4.2856    -8.4974     0.5320 H       
  52 H52            4.8577    -9.7465    -0.5996 H       
  53 H53            5.6861    -8.1732    -0.5177 H       
@<TRIPOS>BOND
   1    1    2 1
   2    1   24 1
   3    1   25 1
   4    1   26 1
   5    2    3 1
   6    2   27 1
   7    2   28 1
   8    3    4 1
   9    3   29 1
  10    3   30 1
  11    4    5 1
  12    4   31 1
  13    4   32 1
  14    5    6 1
  15    5   33 1
  16    5   34 1
  17    6    7 ar
  18    6   12 ar
  19    7    8 ar
  20    7   35 1
  21    8    9 1
  22    8   10 ar
  23    9   36 1
  24   10   11 ar
  25   10   16 1
  26   11   12 ar
  27   11   13 1
  28   12   37 1
  29   13   14 1
  30   14   15 1
  31   14   22 1
  32   14   23 1
  33   15   16 1
  34   15   21 1
  35   15   38 1
  36   16   17 1
  37   16   39 1
  38   17   18 2
  39   17   40 1
  40   18   19 1
  41   18   20 1
  42   19   41 1
  43   19   42 1
  44   19   43 1
  45   20   21 1
  46   20   44 1
  47   20   45 1
  48   21   46 1
  49   21   47 1
  50   22   48 1
  51   22   49 1
  52   22   50 1
  53   23   51 1
  54   23   52 1
  55   23   53 1

#	End of record

