#	Name: ASD05233007
#	Creating user name:	WinNT
#	Creation time:	15. 06. 2019 20:57

#	Modifying user name:	WinNT
#	Modification time:	15. 06. 2019 20:57

#	Program:	/corina/corina34_cracker 3.40 0067  02.08.2006

@<TRIPOS>MOLECULE
ASD05233007
  21   22    0    0    0
SMALL
NO_CHARGES


@<TRIPOS>ATOM
   1 C1            -0.0163     1.3476     0.0095 C.2     
   2 C2             0.0021    -0.0041     0.0020 C.2     
   3 C3            -1.3311    -0.4495     0.0123 C.2     
   4 C4            -2.1289     0.6555     0.0259 C.2     
   5 N5            -1.3164     1.7623     0.0300 N.pl3   
   6 C6            -3.6068     0.6613     0.0400 C.ar    
   7 C7            -4.3015     0.1467     1.1407 C.ar    
   8 C8            -5.6872     0.1561     1.1453 C.ar    
   9 C9            -6.3807     0.6725     0.0653 C.ar    
  10 C10           -5.6968     1.1822    -1.0259 C.ar    
  11 C11           -4.3162     1.1850    -1.0416 C.ar    
  12 O12           -3.6194    -0.3609     2.2011 O.3     
  13 Br13          -1.9106    -2.2495     0.0076 Br      
  14 Br14           1.5439    -1.0987    -0.0191 Br      
  15 Br15           1.5030     2.4736     0.0010 Br      
  16 Cl16          -6.5540    -0.4814     2.5076 Cl      
  17 Cl17          -6.5785     1.8269    -2.3752 Cl      
  18 H18           -1.6163     2.6847     0.0397 H       
  19 H19           -7.4607     0.6779     0.0730 H       
  20 H20           -3.7860     1.5832    -1.8941 H       
  21 H21           -3.4150     0.2907     2.8857 H       
@<TRIPOS>BOND
   1    1    2 2
   2    1   15 1
   3    1    5 1
   4    2    3 1
   5    2   14 1
   6    3    4 2
   7    3   13 1
   8    4    5 1
   9    4    6 1
  10    5   18 1
  11    6    7 ar
  12    6   11 ar
  13    7    8 ar
  14    7   12 1
  15    8    9 ar
  16    8   16 1
  17    9   10 ar
  18    9   19 1
  19   10   11 ar
  20   10   17 1
  21   11   20 1
  22   12   21 1

#	End of record

