#	Name: ASD01670033
#	Creating user name:	WinNT
#	Creation time:	15. 06. 2019 19:22

#	Modifying user name:	WinNT
#	Modification time:	15. 06. 2019 19:22

#	Program:	/corina/corina34_cracker 3.40 0067  02.08.2006

@<TRIPOS>MOLECULE
ASD01670033
  25   26    0    0    0
SMALL
NO_CHARGES


@<TRIPOS>ATOM
   1 O1             0.0021    -0.0041     0.0020 O.2     
   2 C2            -0.0143     1.2041     0.0087 C.2     
   3 O3             1.1389     1.8910     0.0013 O.3     
   4 C4            -1.3295     1.9397     0.0189 C.3     
   5 N5            -2.4300     0.9727     0.0189 N.am    
   6 C6            -3.7066     1.4046     0.0273 C.2     
   7 O7            -3.9450     2.5969     0.0349 O.2     
   8 C8            -4.8150     0.4307     0.0272 C.ar    
   9 C9            -4.5447    -0.9406     0.0185 C.ar    
  10 C10           -5.5826    -1.8469     0.0190 C.ar    
  11 C11           -6.8957    -1.4073     0.0280 C.ar    
  12 C12           -7.1804    -0.0521     0.0367 C.ar    
  13 O13           -8.3672     0.6229     0.0463 O.3     
  14 C14           -8.0473     1.9668    -0.3599 C.3     
  15 O15           -6.6754     2.1289     0.0460 O.3     
  16 C16           -6.1420     0.8756     0.0418 C.ar    
  17 H17            1.9569     1.3754    -0.0092 H       
  18 H18           -1.3915     2.5607     0.9126 H       
  19 H19           -1.4000     2.5704    -0.8673 H       
  20 H20           -2.2398     0.0215     0.0128 H       
  21 H21           -3.5227    -1.2896     0.0110 H       
  22 H22           -5.3708    -2.9060     0.0119 H       
  23 H23           -7.7024    -2.1254     0.0280 H       
  24 H24           -8.1421     2.0731    -1.4406 H       
  25 H25           -8.6863     2.6848     0.1541 H       
@<TRIPOS>BOND
   1    1    2 2
   2    2    3 1
   3    2    4 1
   4    3   17 1
   5    4    5 1
   6    4   18 1
   7    4   19 1
   8    5    6 am
   9    5   20 1
  10    6    7 2
  11    6    8 1
  12    8    9 ar
  13    8   16 ar
  14    9   10 ar
  15    9   21 1
  16   10   11 ar
  17   10   22 1
  18   11   12 ar
  19   11   23 1
  20   12   13 1
  21   12   16 ar
  22   13   14 1
  23   14   15 1
  24   14   24 1
  25   14   25 1
  26   15   16 1

#	End of record

