#	Name: ASD04590473
#	Creating user name:	WinNT
#	Creation time:	15. 06. 2019 20:50

#	Modifying user name:	WinNT
#	Modification time:	15. 06. 2019 20:50

#	Program:	/corina/corina34_cracker 3.40 0067  02.08.2006

@<TRIPOS>MOLECULE
ASD04590473
  41   44    0    0    0
SMALL
NO_CHARGES


@<TRIPOS>ATOM
   1 C1            -0.0166     1.3694     0.0096 C.2     
   2 C2             0.0021    -0.0041     0.0020 C.2     
   3 N3             1.2489     1.7989    -0.0002 N.2     
   4 C4             2.0716     0.7720    -0.0042 C.2     
   5 N5             1.3440    -0.3732     0.0031 N.pl3   
   6 C6             3.5458     0.8527    -0.0157 C.2     
   7 C7             4.3136     2.0407    -0.0237 C.2     
   8 C8             5.6220     1.6870    -0.0323 C.2     
   9 N9             5.6868     0.3295    -0.0298 N.pl3   
  10 N10            4.3786    -0.1703    -0.0144 N.2     
  11 N11            3.8106     3.3515    -0.0233 N.am    
  12 C12            4.6588     4.3989    -0.0316 C.2     
  13 O13            5.8599     4.2086    -0.0393 O.2     
  14 C14            4.1302     5.7762    -0.0312 C.ar    
  15 C15            3.8698     6.4302    -1.2403 C.ar    
  16 C16            3.8809     6.4337     1.1783 C.ar    
  17 C17            3.3852     7.7239     1.1695 C.ar    
  18 C18            3.1352     8.3647    -0.0304 C.ar    
  19 C19            3.3742     7.7204    -1.2307 C.ar    
  20 F20            4.1026     5.8026    -2.4138 F       
  21 F21            4.1236     5.8092     2.3515 F       
  22 C22           -1.1019    -0.9455    -0.0113 C.2     
  23 N23           -2.3928    -0.7029    -0.0125 N.am    
  24 C24           -3.0744     0.5613     0.0723 C.3     
  25 C25           -2.4053     1.6824    -0.6747 C.3     
  26 C26           -1.2159     2.2655     0.0408 C.3     
  27 O27           -0.7887    -2.1216    -0.0233 O.2     
  28 H28            1.6931    -1.2782     0.0086 H       
  29 H29            6.4636     2.3637    -0.0400 H       
  30 H30            6.4987    -0.2014    -0.0345 H       
  31 H31            2.8525     3.5034    -0.0171 H       
  32 H32            3.1922     8.2330     2.1022 H       
  33 H33            2.7476     9.3728    -0.0301 H       
  34 H34            3.1766     8.2282    -2.1631 H       
  35 H35           -2.9652    -1.4831    -0.0801 H       
  36 H36           -4.0829     0.4371    -0.3220 H       
  37 H37           -3.1503     0.8430     1.1225 H       
  38 H38           -2.0786     1.3077    -1.6447 H       
  39 H39           -3.1352     2.4750    -0.8392 H       
  40 H40           -1.4882     2.4518     1.0797 H       
  41 H41           -0.9561     3.2152    -0.4269 H       
@<TRIPOS>BOND
   1    1    2 2
   2    1    3 1
   3    1   26 1
   4    2   22 1
   5    2    5 1
   6    3    4 2
   7    4    5 1
   8    4    6 1
   9    5   28 1
  10    6    7 1
  11    6   10 2
  12    7    8 2
  13    7   11 1
  14    8    9 1
  15    8   29 1
  16    9   10 1
  17    9   30 1
  18   11   12 am
  19   11   31 1
  20   12   13 2
  21   12   14 1
  22   14   15 ar
  23   14   16 ar
  24   15   20 1
  25   15   19 ar
  26   16   17 ar
  27   16   21 1
  28   17   18 ar
  29   17   32 1
  30   18   19 ar
  31   18   33 1
  32   19   34 1
  33   22   23 am
  34   22   27 2
  35   23   24 1
  36   23   35 1
  37   24   25 1
  38   24   36 1
  39   24   37 1
  40   25   26 1
  41   25   38 1
  42   25   39 1
  43   26   40 1
  44   26   41 1

#	End of record

