#	Name: ASD08150723
#	Creating user name:	WinNT
#	Creation time:	15. 06. 2019 21:16

#	Modifying user name:	WinNT
#	Modification time:	15. 06. 2019 21:16

#	Program:	/corina/corina34_cracker 3.40 0067  02.08.2006

@<TRIPOS>MOLECULE
ASD08150723
  45   49    0    0    0
SMALL
NO_CHARGES


@<TRIPOS>ATOM
   1 C1            -0.0714     1.1967     0.0676 C.2     
   2 N2             0.0834    -0.1150     0.1127 N.2     
   3 C3             1.2800    -0.6773     0.0439 C.2     
   4 C4             2.4025     0.1378    -0.0791 C.2     
   5 C5             2.2301     1.5341    -0.1265 C.2     
   6 N6             0.9731     2.0619    -0.0515 N.am    
   7 S7            -1.5285     2.2045     0.1298 S.3     
   8 C8             0.6351     3.3922    -0.0838 C.2     
   9 C9            -0.6394     3.7318    -0.0012 C.2     
  10 O10            3.1982     2.2684    -0.2336 O.2     
  11 C11            3.7558    -0.4548    -0.1583 C.ar    
  12 C12            4.5248    -0.2740    -1.3089 C.ar    
  13 C13            5.7876    -0.8341    -1.3675 C.ar    
  14 C14            6.2436    -1.5584    -0.2736 C.ar    
  15 C15            5.4301    -1.6985     0.8342 C.ar    
  16 N16            4.2318    -1.1502     0.8681 N.ar    
  17 C17            1.4252    -2.1763     0.0984 C.3     
  18 C18            1.0134    -2.6785     1.4838 C.3     
  19 N19            0.5653    -2.7875    -0.9181 N.pl3   
  20 N20           -1.0727    -4.2796    -3.0491 N.2     
  21 C21           -1.4183    -5.2254    -3.8735 C.2     
  22 N22           -0.5250    -6.2528    -3.8045 N.pl3   
  23 C23            0.4262    -5.9092    -2.8775 C.ar    
  24 N24            1.5184    -6.4914    -2.3935 N.ar    
  25 C25            2.2508    -5.8896    -1.4800 C.ar    
  26 N26            1.9477    -4.6969    -1.0012 N.ar    
  27 C27            0.8745    -4.0374    -1.4253 C.ar    
  28 C28            0.0612    -4.6388    -2.4006 C.ar    
  29 C29            1.7014     4.4493    -0.2126 C.3     
  30 H30           -1.0523     4.7297    -0.0149 H       
  31 H31            4.1389     0.2951    -2.1417 H       
  32 H32            6.4055    -0.7114    -2.2447 H       
  33 H33            7.2253    -2.0083    -0.2891 H       
  34 H34            5.7824    -2.2616     1.6859 H       
  35 H35            2.4633    -2.4480    -0.0927 H       
  36 H36            1.1185    -3.7627     1.5232 H       
  37 H37            1.6532    -2.2238     2.2401 H       
  38 H38           -0.0247    -2.4069     1.6749 H       
  39 H39           -0.2207    -2.3161    -1.2356 H       
  40 H40           -2.2854    -5.2003    -4.5169 H       
  41 H41           -0.5563    -7.0759    -4.3167 H       
  42 H42            3.1323    -6.3904    -1.1078 H       
  43 H43            1.8794     4.6592    -1.2673 H       
  44 H44            1.3729     5.3597     0.2886 H       
  45 H45            2.6232     4.0935     0.2476 H       
@<TRIPOS>BOND
   1    1    2 2
   2    1    6 1
   3    1    7 1
   4    2    3 1
   5    3    4 2
   6    3   17 1
   7    4    5 1
   8    4   11 1
   9    5    6 am
  10    5   10 2
  11    6    8 1
  12    7    9 1
  13    8    9 2
  14    8   29 1
  15    9   30 1
  16   11   12 ar
  17   11   16 ar
  18   12   13 ar
  19   12   31 1
  20   13   14 ar
  21   13   32 1
  22   14   15 ar
  23   14   33 1
  24   15   16 ar
  25   15   34 1
  26   17   18 1
  27   17   19 1
  28   17   35 1
  29   18   36 1
  30   18   37 1
  31   18   38 1
  32   19   27 1
  33   19   39 1
  34   20   21 2
  35   20   28 1
  36   21   22 1
  37   21   40 1
  38   22   23 1
  39   22   41 1
  40   23   24 ar
  41   23   28 ar
  42   24   25 ar
  43   25   26 ar
  44   25   42 1
  45   26   27 ar
  46   27   28 ar
  47   29   43 1
  48   29   44 1
  49   29   45 1

#	End of record

