#	Name: ASD01120308
#	Creating user name:	WinNT
#	Creation time:	15. 06. 2019 18:59

#	Modifying user name:	WinNT
#	Modification time:	15. 06. 2019 18:59

#	Program:	/corina/corina34_cracker 3.40 0067  02.08.2006

@<TRIPOS>MOLECULE
ASD01120308
  36   38    0    0    0
SMALL
NO_CHARGES


@<TRIPOS>ATOM
   1 C1             2.8139    -2.0279     1.5553 C.3     
   2 C2             1.6270    -1.6710     0.6981 C.ar    
   3 C3             0.7944    -0.6315     1.0697 C.ar    
   4 C4            -0.2962    -0.3006     0.2859 C.ar    
   5 C5            -0.5569    -1.0078    -0.8709 C.ar    
   6 C6             0.2779    -2.0527    -1.2476 C.ar    
   7 C7             1.3753    -2.3790    -0.4608 C.ar    
   8 N8             0.0168    -2.7707    -2.4172 N.pl3   
   9 C9             0.1416    -4.1573    -2.4253 C.ar    
  10 C10            0.3708    -4.8426    -1.2461 C.ar    
  11 C11            0.4952    -6.2240    -1.2506 C.ar    
  12 C12            0.3936    -6.9369    -2.4253 C.ar    
  13 C13            0.1637    -6.2738    -3.6274 C.ar    
  14 C14            0.0296    -4.8720    -3.6334 C.ar    
  15 C15           -0.1935    -4.4820    -4.9728 C.2     
  16 C16           -0.1928    -5.6071    -5.7382 C.2     
  17 N17            0.0198    -6.7062    -4.9249 N.pl3   
  18 C18           -0.3906    -5.6486    -7.1912 C.2     
  19 O19           -0.5745    -4.6178    -7.8094 O.2     
  20 O20           -0.3685    -6.8301    -7.8413 O.3     
  21 N21            0.5298    -8.4109    -2.4090 N.pl3   
  22 O22            0.7314    -8.9923    -1.3579 O.2     
  23 O23            0.4403    -9.0423    -3.4467 O.2     
  24 H24            2.5173    -2.7713     2.2952 H       
  25 H25            3.6059    -2.4360     0.9275 H       
  26 H26            3.1770    -1.1344     2.0633 H       
  27 H27            0.9958    -0.0769     1.9743 H       
  28 H28           -0.9446     0.5117     0.5793 H       
  29 H29           -1.4090    -0.7493    -1.4821 H       
  30 H30            2.0262    -3.1906    -0.7507 H       
  31 H31           -0.2515    -2.3031    -3.2236 H       
  32 H32            0.4537    -4.2991    -0.3166 H       
  33 H33            0.6740    -6.7468    -0.3226 H       
  34 H34           -0.3389    -3.4718    -5.3260 H       
  35 H35            0.0652    -7.6286    -5.2217 H       
  36 H36           -0.5036    -6.8071    -8.7986 H       
@<TRIPOS>BOND
   1    1    2 1
   2    1   24 1
   3    1   25 1
   4    1   26 1
   5    2    3 ar
   6    2    7 ar
   7    3    4 ar
   8    3   27 1
   9    4    5 ar
  10    4   28 1
  11    5    6 ar
  12    5   29 1
  13    6    7 ar
  14    6    8 1
  15    7   30 1
  16    8    9 1
  17    8   31 1
  18    9   10 ar
  19    9   14 ar
  20   10   11 ar
  21   10   32 1
  22   11   12 ar
  23   11   33 1
  24   12   13 ar
  25   12   21 1
  26   13   14 ar
  27   13   17 1
  28   14   15 1
  29   15   16 2
  30   15   34 1
  31   16   17 1
  32   16   18 1
  33   17   35 1
  34   18   19 2
  35   18   20 1
  36   20   36 1
  37   21   22 2
  38   21   23 2

#	End of record

