#	Name: ASD01208680
#	Creating user name:	WinNT
#	Creation time:	15. 06. 2019 19:10

#	Modifying user name:	WinNT
#	Modification time:	15. 06. 2019 19:10

#	Program:	/corina/corina34_cracker 3.40 0067  02.08.2006

@<TRIPOS>MOLECULE
ASD01208680
  55   58    0    0    0
SMALL
NO_CHARGES


@<TRIPOS>ATOM
   1 C1            -0.2518     1.7755     0.5238 C.2     
   2 C2            -0.2202     0.3141     0.3035 C.ar    
   3 C3             0.9494    -0.3006    -0.1459 C.ar    
   4 C4             0.9750    -1.6700    -0.3506 C.ar    
   5 C5            -0.1600    -2.4309    -0.1097 C.ar    
   6 C6            -1.3249    -1.8240     0.3371 C.ar    
   7 C7            -1.3576    -0.4552     0.5496 C.ar    
   8 O8             0.7418     2.4435     0.3136 O.2     
   9 N9            -1.3839     2.3680     0.9525 N.am    
  10 S10           -2.7766     4.6207     1.6996 S.3     
  11 C11           -1.4137     3.7411     1.1596 C.2     
  12 N12           -0.4118     4.5422     0.9722 N.2     
  13 C13           -0.6162     5.8225     1.2194 C.2     
  14 C14           -1.8494     6.1173     1.6355 C.2     
  15 O15           -2.4338    -2.5737     0.5716 O.3     
  16 C16           -3.4293    -2.5452    -0.3512 C.ar    
  17 C17           -4.6148    -3.2581    -0.1292 C.ar    
  18 C18           -5.6313    -3.2212    -1.0841 C.ar    
  19 C19           -5.4642    -2.4849    -2.2387 C.ar    
  20 C20           -4.2914    -1.7823    -2.4547 C.ar    
  21 C21           -3.2794    -1.8063    -1.5137 C.ar    
  22 O22           -5.8692    -4.7736     1.4494 O.3     
  23 C23           -4.7872    -4.0449     1.1090 C.2     
  24 N24           -3.9151    -4.1657     2.0830 N.2     
  25 N25           -4.4039    -4.9267     2.9981 N.2     
  26 C26           -5.5967    -5.3186     2.6480 C.2     
  27 C27           -6.5059    -6.2201     3.4428 C.3     
  28 C28           -7.3846    -5.3730     4.3655 C.3     
  29 O29            2.1133    -2.2695    -0.7886 O.3     
  30 C30            3.1205    -4.0237    -2.1111 C.3     
  31 C31            2.0366    -3.6636    -1.0931 C.3     
  32 C32            2.2470    -4.4773     0.1854 C.3     
  33 C33            2.8495    -3.3320    -3.3819 C.1     
  34 N34            2.6404    -2.7982    -4.3626 N.1     
  35 H35            1.8333     0.2908    -0.3340 H       
  36 H36           -0.1367    -3.4986    -0.2707 H       
  37 H37           -2.2635     0.0160     0.9014 H       
  38 H38           -2.1779     1.8355     1.1164 H       
  39 H39            0.1524     6.5710     1.0951 H       
  40 H40           -2.2150     7.1014     1.8891 H       
  41 H41           -6.5477    -3.7687    -0.9197 H       
  42 H42           -6.2516    -2.4570    -2.9774 H       
  43 H43           -4.1681    -1.2089    -3.3615 H       
  44 H44           -2.3688    -1.2520    -1.6868 H       
  45 H45           -7.1379    -6.7904     2.7620 H       
  46 H46           -5.9056    -6.9054     4.0412 H       
  47 H47           -7.9849    -4.6878     3.7671 H       
  48 H48           -8.0422    -6.0251     4.9404 H       
  49 H49           -6.7526    -4.8028     5.0463 H       
  50 H50            4.0939    -3.7151    -1.7298 H       
  51 H51            3.1201    -5.1011    -2.2766 H       
  52 H52            1.0558    -3.8907    -1.5111 H       
  53 H53            1.4748    -4.2207     0.9106 H       
  54 H54            2.1885    -5.5406    -0.0469 H       
  55 H55            3.2278    -4.2501     0.6033 H       
@<TRIPOS>BOND
   1    1    2 1
   2    1    8 2
   3    1    9 am
   4    2    3 ar
   5    2    7 ar
   6    3    4 ar
   7    3   35 1
   8    4    5 ar
   9    4   29 1
  10    5    6 ar
  11    5   36 1
  12    6    7 ar
  13    6   15 1
  14    7   37 1
  15    9   11 1
  16    9   38 1
  17   10   11 1
  18   10   14 1
  19   11   12 2
  20   12   13 1
  21   13   14 2
  22   13   39 1
  23   14   40 1
  24   15   16 1
  25   16   17 ar
  26   16   21 ar
  27   17   18 ar
  28   17   23 1
  29   18   19 ar
  30   18   41 1
  31   19   20 ar
  32   19   42 1
  33   20   21 ar
  34   20   43 1
  35   21   44 1
  36   22   23 1
  37   22   26 1
  38   23   24 2
  39   24   25 1
  40   25   26 2
  41   26   27 1
  42   27   28 1
  43   27   45 1
  44   27   46 1
  45   28   47 1
  46   28   48 1
  47   28   49 1
  48   29   31 1
  49   30   31 1
  50   30   33 1
  51   30   50 1
  52   30   51 1
  53   31   32 1
  54   31   52 1
  55   32   53 1
  56   32   54 1
  57   32   55 1
  58   33   34 3

#	End of record

