#	Name: ASD01914829
#	Creating user name:	WinNT
#	Creation time:	15. 06. 2019 20:04

#	Modifying user name:	WinNT
#	Modification time:	15. 06. 2019 20:04

#	Program:	/corina/corina34_cracker 3.40 0067  02.08.2006

@<TRIPOS>MOLECULE
ASD01914829
  32   33    0    0    0
SMALL
NO_CHARGES


@<TRIPOS>ATOM
   1 C1             0.0705     1.4755     0.2494 C.3     
   2 C2             0.0021    -0.0041     0.0020 C.2     
   3 C3             0.9846    -0.6861    -0.5451 C.2     
   4 C4             2.2775    -0.0476    -0.9702 C.3     
   5 C5             2.0999     1.4705    -1.0551 C.3     
   6 N6             1.4630     1.9373     0.1874 N.3     
   7 C7             1.5381     3.4000     0.3001 C.3     
   8 N8            -2.6977    -2.3157     0.8002 N.pl3   
   9 N9            -1.4023    -2.0330     0.3492 N.2     
  10 C10           -1.2258    -0.7273     0.3917 C.2     
  11 C11           -2.4174    -0.1404     0.8762 C.2     
  12 C12           -3.3016    -1.1390     1.1179 C.2     
  13 S13           -2.7019     1.5810     1.1222 S.3     
  14 C14           -4.4036     1.6279     1.7487 C.3     
  15 C15           -4.8086     3.0788     2.0166 C.3     
  16 H16           -0.5163     1.9957    -0.5077 H       
  17 H17           -0.3394     1.6961     1.2350 H       
  18 H18            0.8573    -1.7480    -0.6955 H       
  19 H19            3.0542    -0.2817    -0.2421 H       
  20 H20            2.5688    -0.4338    -1.9470 H       
  21 H21            3.0735     1.9472    -1.1691 H       
  22 H22            1.4661     1.7179    -1.9067 H       
  23 H23            1.1079     3.7138     1.2512 H       
  24 H24            2.5804     3.7152     0.2512 H       
  25 H25            0.9817     3.8565    -0.5186 H       
  26 H26           -3.0964    -3.1972     0.8700 H       
  27 H27           -4.3067    -1.0212     1.4950 H       
  28 H28           -5.0755     1.1939     1.0083 H       
  29 H29           -4.4656     1.0565     2.6749 H       
  30 H30           -5.8311     3.1070     2.3931 H       
  31 H31           -4.1367     3.5129     2.7570 H       
  32 H32           -4.7466     3.6503     1.0904 H       
@<TRIPOS>BOND
   1    1    2 1
   2    1    6 1
   3    1   16 1
   4    1   17 1
   5    2    3 2
   6    2   10 1
   7    3    4 1
   8    3   18 1
   9    4    5 1
  10    4   19 1
  11    4   20 1
  12    5    6 1
  13    5   21 1
  14    5   22 1
  15    6    7 1
  16    7   23 1
  17    7   24 1
  18    7   25 1
  19    8    9 1
  20    8   12 1
  21    8   26 1
  22    9   10 2
  23   10   11 1
  24   11   12 2
  25   11   13 1
  26   12   27 1
  27   13   14 1
  28   14   15 1
  29   14   28 1
  30   14   29 1
  31   15   30 1
  32   15   31 1
  33   15   32 1

#	End of record

