#	Name: ASD03520003
#	Creating user name:	WinNT
#	Creation time:	15. 06. 2019 20:42

#	Modifying user name:	WinNT
#	Modification time:	15. 06. 2019 20:42

#	Program:	/corina/corina34_cracker 3.40 0067  02.08.2006

@<TRIPOS>MOLECULE
ASD03520003
  57   60    0    0    0
SMALL
NO_CHARGES


@<TRIPOS>ATOM
   1 C1            -0.2094     2.3308     0.1152 C.3     
   2 C2            -0.2161     0.8255     0.3636 C.3     
   3 C3             0.3779     0.0519    -0.8242 C.3     
   4 C4            -0.4241     0.4258    -2.0573 C.3     
   5 C5            -0.1946     1.9399    -2.3113 C.3     
   6 C6            -0.9089     2.6921    -1.2047 C.3     
   7 C7             0.6035     0.5160     1.6198 C.3     
   8 C8             0.6664    -0.9689     1.8219 C.2     
   9 C9             1.1101    -1.8297     0.6540 C.3     
  10 C10            0.2637    -1.4517    -0.5657 C.3     
  11 C11            0.0678     1.2615     2.7940 C.2     
  12 C12           -0.2665     0.6946     3.9423 C.2     
  13 C13           -0.1257    -0.7617     4.1100 C.2     
  14 C14            0.3418    -1.5577     2.9647 C.2     
  15 C15            0.0572    -0.1870    -3.3771 C.3     
  16 C16           -0.5175     0.7861    -4.4424 C.3     
  17 C17           -0.7287     2.1429    -3.7256 C.3     
  18 C18            0.0464     3.2294    -4.4255 C.2     
  19 O19           -2.1189     2.4714    -3.6872 O.3     
  20 O20            1.2475     3.1483    -4.5212 O.2     
  21 C21           -0.6773     4.4170    -5.0058 C.3     
  22 O22            0.2676     5.3009    -5.6122 O.3     
  23 C23            0.4759     0.9498    -5.5945 C.3     
  24 C24            1.3026     2.2523    -2.2679 C.3     
  25 O25            1.1433     2.7891     0.0664 O.3     
  26 C26            2.0295     1.0163     1.3807 C.3     
  27 F27           -1.5337     0.3966     0.5566 F       
  28 O28           -0.3896    -1.2943     5.1718 O.2     
  29 H29           -0.7238     2.8291     0.9369 H       
  30 H30            1.4209     0.3361    -0.9637 H       
  31 H31           -1.4829     0.2230    -1.8963 H       
  32 H32           -1.9552     2.3890    -1.1654 H       
  33 H33           -0.8388     3.7656    -1.3803 H       
  34 H34            2.1636    -1.6473     0.4417 H       
  35 H35            0.9595    -2.8822     0.8945 H       
  36 H36           -0.7786    -1.7095    -0.3780 H       
  37 H37            0.6207    -1.9981    -1.4386 H       
  38 H38           -0.0549     2.3306     2.7023 H       
  39 H39           -0.6415     1.2990     4.7550 H       
  40 H40            0.4212    -2.6310     3.0554 H       
  41 H41            1.1463    -0.2054    -3.4193 H       
  42 H42           -0.3518    -1.1887    -3.5091 H       
  43 H43           -1.4687     0.4096    -4.8186 H       
  44 H44           -2.5140     2.6122    -4.5586 H       
  45 H45           -1.3903     4.0766    -5.7568 H       
  46 H46           -1.2087     4.9421    -4.2121 H       
  47 H47           -0.1288     6.0894    -6.0075 H       
  48 H48            0.6389    -0.0156    -6.0736 H       
  49 H49            0.0743     1.6539    -6.3232 H       
  50 H50            1.4222     1.3277    -5.2074 H       
  51 H51            1.7900     1.8172    -3.1405 H       
  52 H52            1.4487     3.3324    -2.2710 H       
  53 H53            1.7358     1.8296    -1.3614 H       
  54 H54            1.2312     3.7395    -0.0888 H       
  55 H55            2.0671     2.0945     1.5359 H       
  56 H56            2.7086     0.5250     2.0775 H       
  57 H57            2.3288     0.7857     0.3582 H       
@<TRIPOS>BOND
   1    1    2 1
   2    1   25 1
   3    1    6 1
   4    1   29 1
   5    2    7 1
   6    2   27 1
   7    2    3 1
   8    3    4 1
   9    3   10 1
  10    3   30 1
  11    4    5 1
  12    4   15 1
  13    4   31 1
  14    5    6 1
  15    5   17 1
  16    5   24 1
  17    6   32 1
  18    6   33 1
  19    7    8 1
  20    7   11 1
  21    7   26 1
  22    8    9 1
  23    8   14 2
  24    9   10 1
  25    9   34 1
  26    9   35 1
  27   10   36 1
  28   10   37 1
  29   11   12 2
  30   11   38 1
  31   12   13 1
  32   12   39 1
  33   13   14 1
  34   13   28 2
  35   14   40 1
  36   15   16 1
  37   15   41 1
  38   15   42 1
  39   16   17 1
  40   16   23 1
  41   16   43 1
  42   17   18 1
  43   17   19 1
  44   18   20 2
  45   18   21 1
  46   19   44 1
  47   21   22 1
  48   21   45 1
  49   21   46 1
  50   22   47 1
  51   23   48 1
  52   23   49 1
  53   23   50 1
  54   24   51 1
  55   24   52 1
  56   24   53 1
  57   25   54 1
  58   26   55 1
  59   26   56 1
  60   26   57 1

#	End of record

