#	Name: ASD09400001
#	Creating user name:	WinNT
#	Creation time:	15. 06. 2019 21:22

#	Modifying user name:	WinNT
#	Modification time:	15. 06. 2019 21:22

#	Program:	/corina/corina34_cracker 3.40 0067  02.08.2006

@<TRIPOS>MOLECULE
ASD09400001
  55   58    0    0    0
SMALL
NO_CHARGES


@<TRIPOS>ATOM
   1 N1            -0.0130     1.3109     0.0533 N.ar    
   2 C2             0.0033    -0.0009     0.0313 C.ar    
   3 N3             1.1225    -0.7062     0.0030 N.ar    
   4 C4             2.3122    -0.1187    -0.0052 C.ar    
   5 C5             2.3606     1.2951     0.0171 C.ar    
   6 C6             3.5736     1.9950     0.0109 C.ar    
   7 C7             3.5666     3.3605     0.0336 C.ar    
   8 C8             2.3577     4.0705     0.0637 C.ar    
   9 C9             1.1517     3.4060     0.0704 C.ar    
  10 C10            1.1351     2.0057     0.0475 C.ar    
  11 N11            3.4718    -0.8670    -0.0344 N.pl3   
  12 O12            4.7449     4.0391     0.0276 O.3     
  13 C13            5.9423     3.2597    -0.0030 C.3     
  14 C14            7.1567     4.1903    -0.0054 C.3     
  15 C15            8.4387     3.3558    -0.0381 C.3     
  16 N16            9.6047     4.2494    -0.0404 N.3     
  17 C17           10.8483     3.4933     0.1671 C.3     
  18 C18           12.0397     4.4522     0.0981 C.3     
  19 O19           11.8679     5.4887     1.0684 O.3     
  20 C20           10.6669     6.2457     0.8956 C.3     
  21 C21            9.4615     5.3049     0.9728 C.3     
  22 O22            2.3767     5.4286     0.0868 O.3     
  23 C23            1.1127     6.0946     0.1168 C.3     
  24 C24            3.4074    -2.2609     0.0652 C.ar    
  25 C25            4.3189    -3.0502    -0.6244 C.ar    
  26 C26            4.2536    -4.4268    -0.5240 C.ar    
  27 C27            3.2795    -5.0194     0.2640 C.ar    
  28 C28            2.3706    -4.2339     0.9517 C.ar    
  29 C29            2.4358    -2.8571     0.8582 C.ar    
  30 F30            3.2167    -6.3655     0.3608 F       
  31 Cl31           5.3918    -5.4145    -1.3858 Cl      
  32 H32           -0.9390    -0.5286     0.0368 H       
  33 H33            4.5100     1.4575    -0.0115 H       
  34 H34            0.2253     3.9606     0.0940 H       
  35 H35            4.3313    -0.4263    -0.1239 H       
  36 H36            5.9794     2.6162     0.8760 H       
  37 H37            5.9533     2.6457    -0.9035 H       
  38 H38            7.1195     4.8338    -0.8844 H       
  39 H39            7.1457     4.8043     0.8951 H       
  40 H40            8.4758     2.7123     0.8409 H       
  41 H41            8.4496     2.7418    -0.9387 H       
  42 H42           10.8235     3.0134     1.1455 H       
  43 H43           10.9465     2.7342    -0.6089 H       
  44 H44           12.9593     3.9059     0.3080 H       
  45 H45           12.0960     4.8916    -0.8978 H       
  46 H46           10.5936     6.9965     1.6824 H       
  47 H47           10.6833     6.7373    -0.0771 H       
  48 H48            8.5475     5.8683     0.7848 H       
  49 H49            9.4146     4.8540     1.9640 H       
  50 H50            1.2706     7.1730     0.1331 H       
  51 H51            0.5387     5.8248    -0.7696 H       
  52 H52            0.5649     5.7941     1.0099 H       
  53 H53            5.0777    -2.5884    -1.2387 H       
  54 H54            1.6121    -4.6977     1.5649 H       
  55 H55            1.7291    -2.2449     1.3986 H       
@<TRIPOS>BOND
   1    1    2 ar
   2    1   10 ar
   3    2    3 ar
   4    2   32 1
   5    3    4 ar
   6    4    5 ar
   7    4   11 1
   8    5    6 ar
   9    5   10 ar
  10    6    7 ar
  11    6   33 1
  12    7    8 ar
  13    7   12 1
  14    8    9 ar
  15    8   22 1
  16    9   10 ar
  17    9   34 1
  18   11   24 1
  19   11   35 1
  20   12   13 1
  21   13   14 1
  22   13   36 1
  23   13   37 1
  24   14   15 1
  25   14   38 1
  26   14   39 1
  27   15   16 1
  28   15   40 1
  29   15   41 1
  30   16   17 1
  31   16   21 1
  32   17   18 1
  33   17   42 1
  34   17   43 1
  35   18   19 1
  36   18   44 1
  37   18   45 1
  38   19   20 1
  39   20   21 1
  40   20   46 1
  41   20   47 1
  42   21   48 1
  43   21   49 1
  44   22   23 1
  45   23   50 1
  46   23   51 1
  47   23   52 1
  48   24   25 ar
  49   24   29 ar
  50   25   26 ar
  51   25   53 1
  52   26   27 ar
  53   26   31 1
  54   27   28 ar
  55   27   30 1
  56   28   29 ar
  57   28   54 1
  58   29   55 1

#	End of record

