#	Name: ASD03331072
#	Creating user name:	WinNT
#	Creation time:	15. 06. 2019 20:38

#	Modifying user name:	WinNT
#	Modification time:	15. 06. 2019 20:38

#	Program:	/corina/corina34_cracker 3.40 0067  02.08.2006

@<TRIPOS>MOLECULE
ASD03331072
  61   64    0    0    0
SMALL
NO_CHARGES


@<TRIPOS>ATOM
   1 N1            -0.0164     1.3557     0.0652 N.pl3   
   2 C2             0.0029    -0.0038     0.0363 C.2     
   3 C3             1.2396    -0.8638     0.0224 C.3     
   4 N4             2.1703    -0.3867     1.0572 N.3     
   5 C5             3.0625     0.6482     0.5315 C.3     
   6 C6             2.3511     1.5033    -0.5132 C.3     
   7 C7             1.1626     2.2241     0.1289 C.3     
   8 C8            -1.3235     1.7465     0.0361 C.2     
   9 N9            -2.0807     0.6747     0.0088 N.2     
  10 C10           -1.2922    -0.4229     0.0110 C.2     
  11 C11           -1.7519    -1.8226    -0.0111 C.2     
  12 O12           -0.9411    -2.7291    -0.0074 O.2     
  13 N13           -3.0709    -2.0984    -0.0353 N.am    
  14 C14           -1.8064     3.1442     0.0359 C.ar    
  15 C15           -2.7907     3.5459    -0.8712 C.ar    
  16 C16           -3.2386     4.8530    -0.8666 C.ar    
  17 C17           -2.7135     5.7643     0.0344 C.ar    
  18 C18           -1.7355     5.3706     0.9370 C.ar    
  19 C19           -1.2851     4.0651     0.9453 C.ar    
  20 F20           -1.2268     6.2648     1.8127 F       
  21 F21           -3.1545     7.0413     0.0344 F       
  22 F22           -3.3031     2.6580    -1.7512 F       
  23 C23            2.9368    -1.5012     1.6302 C.3     
  24 C24           -3.5280    -3.4902    -0.0572 C.3     
  25 C25           -3.5909    -4.0289     1.3735 C.3     
  26 C26           -4.0683    -5.4823     1.3506 C.3     
  27 O27           -5.9305    -2.7497    -0.4253 O.3     
  28 N28           -6.8860    -3.0775    -1.0968 N.2     
  29 C29           -6.5854    -4.1027    -1.8365 C.2     
  30 N30           -5.3052    -4.4242    -1.5781 N.2     
  31 C31           -4.8983    -3.5591    -0.6807 C.2     
  32 C32           -7.5026    -4.8028    -2.8059 C.3     
  33 C33           -2.1998    -3.9588     2.0064 C.3     
  34 C34           -4.5677    -3.1841     2.1940 C.3     
  35 H35            0.9660    -1.8987     0.2277 H       
  36 H36            1.7174    -0.7992    -0.9551 H       
  37 H37            3.3934     1.2860     1.3512 H       
  38 H38            3.9312     0.1740     0.0748 H       
  39 H39            3.0476     2.2395    -0.9144 H       
  40 H40            1.9942     0.8653    -1.3217 H       
  41 H41            0.9630     3.1498    -0.4108 H       
  42 H42            1.3927     2.4503     1.1700 H       
  43 H43           -3.7176    -1.3755    -0.0382 H       
  44 H44           -3.9992     5.1647    -1.5671 H       
  45 H45           -0.5272     3.7588     1.6511 H       
  46 H46            3.4551    -2.0336     0.8327 H       
  47 H47            3.6658    -1.1131     2.3415 H       
  48 H48            2.2582    -2.1840     2.1415 H       
  49 H49           -2.8321    -4.0920    -0.6417 H       
  50 H50           -3.3724    -6.0841     0.7660 H       
  51 H51           -4.1131    -5.8661     2.3698 H       
  52 H52           -5.0594    -5.5322     0.8996 H       
  53 H53           -7.4136    -4.3403    -3.7889 H       
  54 H54           -7.2257    -5.8549    -2.8729 H       
  55 H55           -8.5319    -4.7194    -2.4570 H       
  56 H56           -1.8597    -2.9234     2.0227 H       
  57 H57           -2.2446    -4.3426     3.0257 H       
  58 H58           -1.5039    -4.5606     1.4219 H       
  59 H59           -5.5588    -3.2340     1.7430 H       
  60 H60           -4.6125    -3.5679     3.2132 H       
  61 H61           -4.2276    -2.1487     2.2103 H       
@<TRIPOS>BOND
   1    1    2 1
   2    1    7 1
   3    1    8 1
   4    2    3 1
   5    2   10 2
   6    3    4 1
   7    3   35 1
   8    3   36 1
   9    4    5 1
  10    4   23 1
  11    5    6 1
  12    5   37 1
  13    5   38 1
  14    6    7 1
  15    6   39 1
  16    6   40 1
  17    7   41 1
  18    7   42 1
  19    8    9 2
  20    8   14 1
  21    9   10 1
  22   10   11 1
  23   11   12 2
  24   11   13 am
  25   13   24 1
  26   13   43 1
  27   14   15 ar
  28   14   19 ar
  29   15   16 ar
  30   15   22 1
  31   16   17 ar
  32   16   44 1
  33   17   18 ar
  34   17   21 1
  35   18   19 ar
  36   18   20 1
  37   19   45 1
  38   23   46 1
  39   23   47 1
  40   23   48 1
  41   24   25 1
  42   24   31 1
  43   24   49 1
  44   25   26 1
  45   25   33 1
  46   25   34 1
  47   26   50 1
  48   26   51 1
  49   26   52 1
  50   27   28 1
  51   27   31 1
  52   28   29 2
  53   29   30 1
  54   29   32 1
  55   30   31 2
  56   32   53 1
  57   32   54 1
  58   32   55 1
  59   33   56 1
  60   33   57 1
  61   33   58 1
  62   34   59 1
  63   34   60 1
  64   34   61 1

#	End of record

