#	Name: ASD02500902
#	Creating user name:	WinNT
#	Creation time:	15. 06. 2019 20:23

#	Modifying user name:	WinNT
#	Modification time:	15. 06. 2019 20:23

#	Program:	/corina/corina34_cracker 3.40 0067  02.08.2006

@<TRIPOS>MOLECULE
ASD02500902
  42   44    0    0    0
SMALL
NO_CHARGES


@<TRIPOS>ATOM
   1 C1             0.0015     1.4461     0.3383 C.2     
   2 C2             0.0007     0.0419     0.2328 C.2     
   3 C3            -1.2835    -0.6760     0.2774 C.ar    
   4 C4            -2.4529     0.1054     0.1840 C.ar    
   5 O5            -2.3883     1.4483     0.0296 O.3     
   6 C6            -1.3084     2.1270     0.4817 C.2     
   7 C7            -1.3618    -2.0576     0.4078 C.ar    
   8 C8            -2.5986    -2.6667     0.4567 C.ar    
   9 C9            -3.7527    -1.9025     0.3773 C.ar    
  10 C10           -3.6861    -0.5317     0.2425 C.ar    
  11 C11            1.2681     1.9892     0.2842 C.2     
  12 C12            2.2548     1.0784     0.1399 C.2     
  13 S13            1.5799    -0.5435     0.0675 S.3     
  14 C14            3.6845     1.3966     0.0557 C.2     
  15 N15            4.5969     0.4046     0.0572 N.am    
  16 O16            4.0466     2.5562    -0.0155 O.2     
  17 O17           -1.4063     3.2319     0.9817 O.2     
  18 C18            6.0132     0.7118    -0.1573 C.3     
  19 C19            6.6854     0.9856     1.1896 C.3     
  20 C20            8.1645     1.3064     0.9655 C.3     
  21 C21            4.1724    -0.9807     0.2733 C.3     
  22 C22            3.8261    -1.6237    -1.0711 C.3     
  23 C23            3.3828    -3.0706    -0.8454 C.3     
  24 H24           -0.4609    -2.6500     0.4701 H       
  25 H25           -2.6679    -3.7399     0.5566 H       
  26 H26           -4.7167    -2.3874     0.4210 H       
  27 H27           -4.5952     0.0483     0.1831 H       
  28 H28            1.4548     3.0508     0.3511 H       
  29 H29            6.4996    -0.1356    -0.6405 H       
  30 H30            6.1017     1.5926    -0.7933 H       
  31 H31            6.1990     1.8330     1.6728 H       
  32 H32            6.5969     0.1048     1.8255 H       
  33 H33            8.6434     1.5014     1.9251 H       
  34 H34            8.6509     0.4590     0.4824 H       
  35 H35            8.2530     2.1872     0.3296 H       
  36 H36            4.9808    -1.5390     0.7456 H       
  37 H37            3.2949    -0.9952     0.9197 H       
  38 H38            3.0177    -1.0655    -1.5434 H       
  39 H39            4.7036    -1.6092    -1.7175 H       
  40 H40            2.5052    -3.0850    -0.1990 H       
  41 H41            3.1361    -3.5286    -1.8032 H       
  42 H42            4.1911    -3.6288    -0.3732 H       
@<TRIPOS>BOND
   1    1    2 2
   2    1   11 1
   3    1    6 1
   4    2    3 1
   5    2   13 1
   6    3    4 ar
   7    3    7 ar
   8    4    5 1
   9    4   10 ar
  10    5    6 1
  11    6   17 2
  12    7    8 ar
  13    7   24 1
  14    8    9 ar
  15    8   25 1
  16    9   10 ar
  17    9   26 1
  18   10   27 1
  19   11   12 2
  20   11   28 1
  21   12   13 1
  22   12   14 1
  23   14   15 am
  24   14   16 2
  25   15   18 1
  26   15   21 1
  27   18   19 1
  28   18   29 1
  29   18   30 1
  30   19   20 1
  31   19   31 1
  32   19   32 1
  33   20   33 1
  34   20   34 1
  35   20   35 1
  36   21   22 1
  37   21   36 1
  38   21   37 1
  39   22   23 1
  40   22   38 1
  41   22   39 1
  42   23   40 1
  43   23   41 1
  44   23   42 1

#	End of record

