#	Name: ASD01190029
#	Creating user name:	WinNT
#	Creation time:	15. 06. 2019 19:07

#	Modifying user name:	WinNT
#	Modification time:	15. 06. 2019 19:07

#	Program:	/corina/corina34_cracker 3.40 0067  02.08.2006

@<TRIPOS>MOLECULE
ASD01190029
  72   76    0    0    0
SMALL
NO_CHARGES


@<TRIPOS>ATOM
   1 C1            -0.4945     1.5562    -0.1184 C.3     
   2 C2            -3.4350    -0.3404     5.4574 C.2     
   3 C3            -2.4032    -0.5389     6.4893 C.2     
   4 C4            -1.0003    -0.2668     6.1406 C.2     
   5 C5            -0.6804     0.1851     4.9358 C.2     
   6 C6            -1.6986     0.4657     3.8708 C.3     
   7 C7            -3.0934     0.1169     4.2631 C.2     
   8 C8             0.7815     0.4205     4.6050 C.3     
   9 C9             1.0995    -0.3118     3.2976 C.3     
  10 C10            0.1321     0.1459     2.2041 C.3     
  11 C11           -1.3010    -0.2608     2.5823 C.3     
  12 C12            0.4715    -0.5419     0.8943 C.3     
  13 C13           -0.4890     0.0276    -0.1841 C.3     
  14 C14           -1.8749    -0.5049     0.1255 C.3     
  15 C15           -2.2963     0.0872     1.4796 C.3     
  16 C16            1.8426    -0.2013     0.2996 C.3     
  17 C17            1.6598    -0.5304    -1.2071 C.3     
  18 C18            0.1406    -0.4343    -1.4941 C.3     
  19 C19           -0.1222     0.5731    -2.5836 C.2     
  20 O20            0.2079     1.7250    -2.4333 O.2     
  21 F21           -1.3455    -1.6420     2.8000 F       
  22 O22           -2.7045    -0.9189     7.6054 O.2     
  23 O23           -2.3815     1.5087     1.3604 O.3     
  24 O24           -0.3747    -1.7140    -1.8669 O.3     
  25 C25           -0.7972     0.1432    -3.8606 C.3     
  26 C26            2.4210     0.4845    -2.0624 C.3     
  27 O27           -0.9357     1.2874    -4.7438 O.3     
  28 C28           -1.5230     1.0720    -5.9349 C.2     
  29 O29           -1.9093    -0.0411    -6.2290 O.2     
  30 O30           -1.6823     2.0900    -6.8005 O.3     
  31 C31           -2.3809     1.8300    -7.9373 C.ar    
  32 C32           -3.7629     1.7180    -7.8931 C.ar    
  33 C33           -4.4707     1.4541    -9.0498 C.ar    
  34 C34           -3.8027     1.3014   -10.2507 C.ar    
  35 C35           -2.4253     1.4126   -10.2973 C.ar    
  36 C36           -1.7136     1.6820    -9.1444 C.ar    
  37 C37           -1.6584     1.9651     3.5690 C.3     
  38 N38           -4.5634     1.0178   -11.4884 N.pl3   
  39 O39           -5.7768     0.9192   -11.4484 O.2     
  40 O40           -3.9760     0.8830   -12.5469 O.2     
  41 H41            0.4630     1.9385    -0.4723 H       
  42 H42           -1.2956     1.9440    -0.7477 H       
  43 H43           -0.6547     1.8751     0.9115 H       
  44 H44           -4.4676    -0.5716     5.6731 H       
  45 H45           -0.2242    -0.4364     6.8723 H       
  46 H46           -3.8736     0.2447     3.5273 H       
  47 H47            0.9635     1.4882     4.4823 H       
  48 H48            1.4076     0.0298     5.4071 H       
  49 H49            2.1221    -0.0866     2.9950 H       
  50 H50            0.9944    -1.3862     3.4486 H       
  51 H51            0.1897     1.2286     2.0919 H       
  52 H52            0.3430    -1.6202     0.9881 H       
  53 H53           -2.5744    -0.1927    -0.6501 H       
  54 H54           -1.8493    -1.5928     0.1877 H       
  55 H55           -3.2769    -0.3049     1.7493 H       
  56 H56            2.0715     0.8553     0.4385 H       
  57 H57            2.6198    -0.8264     0.7393 H       
  58 H58            2.0170    -1.5388    -1.4158 H       
  59 H59           -3.0212     1.8105     0.7011 H       
  60 H60           -0.0101    -2.0593    -2.6933 H       
  61 H61           -0.1951    -0.6225    -4.3497 H       
  62 H62           -1.7834    -0.2609    -3.6321 H       
  63 H63            3.4850     0.4282    -1.8323 H       
  64 H64            2.2651     0.2599    -3.1176 H       
  65 H65            2.0553     1.4884    -1.8467 H       
  66 H66           -4.2851     1.8365    -6.9552 H       
  67 H67           -5.5466     1.3668    -9.0159 H       
  68 H68           -1.9058     1.2925   -11.2365 H       
  69 H69           -0.6377     1.7688    -9.1813 H       
  70 H70           -0.8048     2.1839     2.9275 H       
  71 H71           -2.5780     2.2587     3.0628 H       
  72 H72           -1.5638     2.5211     4.5018 H       
@<TRIPOS>BOND
   1    1   13 1
   2    1   41 1
   3    1   42 1
   4    1   43 1
   5    2    3 1
   6    2    7 2
   7    2   44 1
   8    3    4 1
   9    3   22 2
  10    4    5 2
  11    4   45 1
  12    5    6 1
  13    5    8 1
  14    6    7 1
  15    6   11 1
  16    6   37 1
  17    7   46 1
  18    8    9 1
  19    8   47 1
  20    8   48 1
  21    9   10 1
  22    9   49 1
  23    9   50 1
  24   10   11 1
  25   10   12 1
  26   10   51 1
  27   11   21 1
  28   11   15 1
  29   12   13 1
  30   12   16 1
  31   12   52 1
  32   13   14 1
  33   13   18 1
  34   14   15 1
  35   14   53 1
  36   14   54 1
  37   15   23 1
  38   15   55 1
  39   16   17 1
  40   16   56 1
  41   16   57 1
  42   17   18 1
  43   17   26 1
  44   17   58 1
  45   18   19 1
  46   18   24 1
  47   19   20 2
  48   19   25 1
  49   23   59 1
  50   24   60 1
  51   25   27 1
  52   25   61 1
  53   25   62 1
  54   26   63 1
  55   26   64 1
  56   26   65 1
  57   27   28 1
  58   28   29 2
  59   28   30 1
  60   30   31 1
  61   31   32 ar
  62   31   36 ar
  63   32   33 ar
  64   32   66 1
  65   33   34 ar
  66   33   67 1
  67   34   35 ar
  68   34   38 1
  69   35   36 ar
  70   35   68 1
  71   36   69 1
  72   37   70 1
  73   37   71 1
  74   37   72 1
  75   38   39 2
  76   38   40 2

#	End of record

