#	Name: ASD04881252
#	Creating user name:	WinNT
#	Creation time:	15. 06. 2019 20:53

#	Modifying user name:	WinNT
#	Modification time:	15. 06. 2019 20:53

#	Program:	/corina/corina34_cracker 3.40 0067  02.08.2006

@<TRIPOS>MOLECULE
ASD04881252
  77   82    0    0    0
SMALL
NO_CHARGES


@<TRIPOS>ATOM
   1 C1             0.2068     1.4527    -0.0927 C.ar    
   2 C2            -0.0374     0.0774    -0.0345 C.ar    
   3 C3             1.0234    -0.8202    -0.0551 C.ar    
   4 C4             2.3190    -0.3584    -0.1329 C.ar    
   5 C5             2.5702     1.0149    -0.1909 C.ar    
   6 C6             1.5047     1.9199    -0.1708 C.ar    
   7 N7            -0.8640     2.3562    -0.0776 N.am    
   8 C8            -0.7265     3.5542     0.5243 C.2     
   9 O9             0.2888     3.8110     1.1430 O.2     
  10 C10           -1.8063     4.5533     0.4328 C.2     
  11 C11           -1.8064     5.7968     0.9860 C.2     
  12 O12           -2.9761     6.3699     0.6604 O.3     
  13 C13           -3.6793     5.4984    -0.0764 C.2     
  14 N14           -2.9882     4.4082    -0.2256 N.2     
  15 N15           -1.3454    -0.3937     0.0447 N.3     
  16 C16           -1.9673    -0.0096     1.3196 C.3     
  17 C17           -3.4249    -0.4761     1.3341 C.3     
  18 N18           -3.4722    -1.9328     1.1462 N.3     
  19 C19           -2.8503    -2.3170    -0.1287 C.3     
  20 C20           -1.3927    -1.8505    -0.1432 C.3     
  21 C21           -4.7801    -2.4040     1.2253 C.ar    
  22 C22           -5.0518     5.7464    -0.6472 C.3     
  23 C23           -6.1827     6.0485     0.3380 C.3     
  24 C24           -5.6153     7.1649    -0.5410 C.3     
  25 C25            3.9578     1.5092    -0.2732 C.2     
  26 N26            4.9842     0.6359    -0.2925 N.am    
  27 O27            4.1754     2.7044    -0.3236 O.2     
  28 C28            6.3621     1.1268    -0.3743 C.3     
  29 C29            7.3269    -0.0606    -0.3801 C.3     
  30 C30            8.7660     0.4520    -0.4655 C.3     
  31 N31            9.6899    -0.6849    -0.4711 N.am    
  32 C32           10.1160    -1.3104    -1.5820 C.2     
  33 C33           11.0504    -2.4424    -1.2157 C.3     
  34 C34           10.7976    -2.6697     0.2928 C.3     
  35 C35           10.2739    -1.2833     0.7350 C.3     
  36 O36            9.7975    -1.0111    -2.7133 O.2     
  37 C37           -5.0352    -3.7678     1.0722 C.ar    
  38 C38           -6.3432    -4.2206     1.1543 C.ar    
  39 C39           -7.3511    -3.2936     1.3867 C.ar    
  40 C40           -7.0249    -1.9605     1.5281 C.ar    
  41 N41           -5.7702    -1.5563     1.4505 N.ar    
  42 O42           -4.0160    -4.6395     0.8454 O.3     
  43 H43            0.8317    -1.8821    -0.0096 H       
  44 H44            3.1413    -1.0585    -0.1487 H       
  45 H45            1.6958     2.9819    -0.2162 H       
  46 H46           -1.7043     2.1195    -0.5005 H       
  47 H47           -1.0162     6.2384     1.5751 H       
  48 H48           -1.4275    -0.4774     2.1430 H       
  49 H49           -1.9312     1.0742     1.4298 H       
  50 H50           -3.8798    -0.2179     2.2904 H       
  51 H51           -3.9712     0.0126     0.5273 H       
  52 H52           -2.8864    -3.4008    -0.2390 H       
  53 H53           -3.3901    -1.8492    -0.9521 H       
  54 H54           -0.9378    -2.1087    -1.0995 H       
  55 H55           -0.8465    -2.3392     0.6635 H       
  56 H56           -5.3012     5.1709    -1.5387 H       
  57 H57           -7.1762     5.6720     0.0946 H       
  58 H58           -5.9340     6.0678     1.3991 H       
  59 H59           -4.9934     7.9187    -0.0582 H       
  60 H60           -6.2356     7.5228    -1.3628 H       
  61 H61            4.8106    -0.3176    -0.2523 H       
  62 H62            6.4889     1.7025    -1.2911 H       
  63 H63            6.5731     1.7622     0.4859 H       
  64 H64            7.2001    -0.6363     0.5367 H       
  65 H65            7.1159    -0.6960    -1.2403 H       
  66 H66            8.8928     1.0277    -1.3823 H       
  67 H67            8.9770     1.0874     0.3946 H       
  68 H68           10.8036    -3.3396    -1.7833 H       
  69 H69           12.0868    -2.1530    -1.3894 H       
  70 H70           10.0461    -3.4434     0.4501 H       
  71 H71           11.7243    -2.9171     0.8107 H       
  72 H72           11.0942    -0.6669     1.1026 H       
  73 H73            9.5121    -1.3976     1.5062 H       
  74 H74           -6.5730    -5.2696     1.0398 H       
  75 H75           -8.3804    -3.6132     1.4558 H       
  76 H76           -7.8067    -1.2376     1.7085 H       
  77 H77           -3.6263    -5.0070     1.6505 H       
@<TRIPOS>BOND
   1    1    2 ar
   2    1    6 ar
   3    1    7 1
   4    2    3 ar
   5    2   15 1
   6    3    4 ar
   7    3   43 1
   8    4    5 ar
   9    4   44 1
  10    5    6 ar
  11    5   25 1
  12    6   45 1
  13    7    8 am
  14    7   46 1
  15    8    9 2
  16    8   10 1
  17   10   11 2
  18   10   14 1
  19   11   12 1
  20   11   47 1
  21   12   13 1
  22   13   14 2
  23   13   22 1
  24   15   16 1
  25   15   20 1
  26   16   17 1
  27   16   48 1
  28   16   49 1
  29   17   18 1
  30   17   50 1
  31   17   51 1
  32   18   19 1
  33   18   21 1
  34   19   20 1
  35   19   52 1
  36   19   53 1
  37   20   54 1
  38   20   55 1
  39   21   37 ar
  40   21   41 ar
  41   22   23 1
  42   22   24 1
  43   22   56 1
  44   23   24 1
  45   23   57 1
  46   23   58 1
  47   24   59 1
  48   24   60 1
  49   25   26 am
  50   25   27 2
  51   26   28 1
  52   26   61 1
  53   28   29 1
  54   28   62 1
  55   28   63 1
  56   29   30 1
  57   29   64 1
  58   29   65 1
  59   30   31 1
  60   30   66 1
  61   30   67 1
  62   31   32 am
  63   31   35 1
  64   32   33 1
  65   32   36 2
  66   33   34 1
  67   33   68 1
  68   33   69 1
  69   34   35 1
  70   34   70 1
  71   34   71 1
  72   35   72 1
  73   35   73 1
  74   37   38 ar
  75   37   42 1
  76   38   39 ar
  77   38   74 1
  78   39   40 ar
  79   39   75 1
  80   40   41 ar
  81   40   76 1
  82   42   77 1

#	End of record

