#	Name: ASD03430853
#	Creating user name:	WinNT
#	Creation time:	15. 06. 2019 20:41

#	Modifying user name:	WinNT
#	Modification time:	15. 06. 2019 20:41

#	Program:	/corina/corina34_cracker 3.40 0067  02.08.2006

@<TRIPOS>MOLECULE
ASD03430853
  51   56    0    0    0
SMALL
NO_CHARGES


@<TRIPOS>ATOM
   1 C1            -0.0187     1.5298     0.0105 C.3     
   2 C2             0.0021    -0.0041     0.0020 C.3     
   3 C3             0.6172    -0.4690    -1.3203 C.3     
   4 C4             1.8930     0.2900    -1.5818 C.ar    
   5 C5             2.7948    -0.2168    -2.5035 C.ar    
   6 C6             3.9684     0.4508    -2.7717 C.ar    
   7 C7             4.2627     1.6495    -2.1260 C.ar    
   8 C8             3.3596     2.1503    -1.1969 C.ar    
   9 C9             2.1782     1.4734    -0.9227 C.ar    
  10 O10            1.3301     1.9989     0.0001 O.3     
  11 O11            5.4516     2.1612    -2.5527 O.3     
  12 C12            5.1304     0.1585    -3.6825 C.3     
  13 C13            6.2194     1.1183    -3.1835 C.3     
  14 N14            5.4945    -1.7699    -4.8547 N.am    
  15 C15            5.5716    -1.2747    -3.6033 C.2     
  16 C16            4.7971     0.3925    -5.1262 C.ar    
  17 C17            4.3403     1.4829    -5.8322 C.ar    
  18 C18            4.1219     1.3842    -7.1948 C.ar    
  19 C19            4.3631     0.1880    -7.8456 C.ar    
  20 C20            4.8199    -0.9074    -7.1428 C.ar    
  21 C21            5.0424    -0.8172    -5.7708 C.ar    
  22 O22            5.9279    -1.8699    -2.6084 O.2     
  23 C23            5.8441    -3.1469    -5.2122 C.3     
  24 O24            4.1346    -4.0327    -3.7383 O.3     
  25 C25            4.6046    -4.0356    -5.0914 C.3     
  26 C26            4.9663    -5.4914    -5.4566 C.3     
  27 C27            4.1458    -6.3050    -4.4189 C.3     
  28 C28            4.2026    -5.3597    -3.1925 C.3     
  29 H29           -0.5411     1.8947    -0.8739 H       
  30 H30           -0.5240     1.8852     0.9085 H       
  31 H31            0.6035    -0.3679     0.8351 H       
  32 H32           -1.0152    -0.3858     0.0883 H       
  33 H33            0.8348    -1.5356    -1.2639 H       
  34 H34           -0.0868    -0.2857    -2.1320 H       
  35 H35            2.5755    -1.1425    -3.0150 H       
  36 H36            3.5783     3.0745    -0.6826 H       
  37 H37            6.7981     1.5146    -4.0179 H       
  38 H38            6.8688     0.6246    -2.4606 H       
  39 H39            4.1528     2.4161    -5.3220 H       
  40 H40            3.7635     2.2392    -7.7488 H       
  41 H41            4.1925     0.1110    -8.9093 H       
  42 H42            5.0058    -1.8381    -7.6581 H       
  43 H43            6.2119    -3.1737    -6.2380 H       
  44 H44            6.6196    -3.5115    -4.5386 H       
  45 H45            3.8209    -3.6715    -5.7558 H       
  46 H46            4.6491    -5.7267    -6.4725 H       
  47 H47            6.0345    -5.6687    -5.3316 H       
  48 H48            3.1194    -6.4498    -4.7560 H       
  49 H49            4.6243    -7.2599    -4.2014 H       
  50 H50            5.1383    -5.4985    -2.6509 H       
  51 H51            3.3530    -5.5421    -2.5345 H       
@<TRIPOS>BOND
   1    1    2 1
   2    1   10 1
   3    1   29 1
   4    1   30 1
   5    2    3 1
   6    2   31 1
   7    2   32 1
   8    3    4 1
   9    3   33 1
  10    3   34 1
  11    4    5 ar
  12    4    9 ar
  13    5    6 ar
  14    5   35 1
  15    6    7 ar
  16    6   12 1
  17    7    8 ar
  18    7   11 1
  19    8    9 ar
  20    8   36 1
  21    9   10 1
  22   11   13 1
  23   12   13 1
  24   12   15 1
  25   12   16 1
  26   13   37 1
  27   13   38 1
  28   14   15 am
  29   14   21 1
  30   14   23 1
  31   15   22 2
  32   16   17 ar
  33   16   21 ar
  34   17   18 ar
  35   17   39 1
  36   18   19 ar
  37   18   40 1
  38   19   20 ar
  39   19   41 1
  40   20   21 ar
  41   20   42 1
  42   23   25 1
  43   23   43 1
  44   23   44 1
  45   24   25 1
  46   24   28 1
  47   25   26 1
  48   25   45 1
  49   26   27 1
  50   26   46 1
  51   26   47 1
  52   27   28 1
  53   27   48 1
  54   27   49 1
  55   28   50 1
  56   28   51 1

#	End of record

