#	Name: ASD01908269
#	Creating user name:	WinNT
#	Creation time:	15. 06. 2019 19:54

#	Modifying user name:	WinNT
#	Modification time:	15. 06. 2019 19:54

#	Program:	/corina/corina34_cracker 3.40 0067  02.08.2006

@<TRIPOS>MOLECULE
ASD01908269
  54   56    0    0    0
SMALL
NO_CHARGES


@<TRIPOS>ATOM
   1 N1             0.3113     1.2932     0.5026 N.am    
   2 C2             0.4231    -0.1729     0.5396 C.3     
   3 C3             1.2312    -0.6303    -0.6793 C.3     
   4 N4             2.5113     0.0896    -0.7124 N.3     
   5 C5             2.3058     1.5347    -0.8783 C.3     
   6 C6             1.5417     2.0809     0.3325 C.3     
   7 C7            -0.8875     1.8986     0.6160 C.2     
   8 O8            -1.8945     1.2320     0.7509 O.2     
   9 O9            -0.9694     3.2420     0.5798 O.3     
  10 C10            3.3458    -0.4167    -1.7155 C.ar    
  11 C11            3.8505    -1.7080    -1.6138 C.ar    
  12 C12            4.6735    -2.2073    -2.6042 C.ar    
  13 C13            4.9966    -1.4191    -3.7014 C.ar    
  14 C14            4.4926    -0.1293    -3.8023 C.ar    
  15 C15            3.6649     0.3684    -2.8150 C.ar    
  16 C16            7.6557    -1.6644    -6.3211 C.ar    
  17 C17            8.5535    -0.8162    -6.9659 C.ar    
  18 C18            9.4436    -1.3505    -7.8839 C.ar    
  19 C19            9.4049    -2.7151    -8.1254 C.ar    
  20 C20            8.4852    -3.4991    -7.4476 C.ar    
  21 N21            7.6516    -2.9659    -6.5812 N.ar    
  22 C22            6.7020    -1.1098    -5.3326 C.2     
  23 O23            6.7048     0.0805    -5.0870 O.2     
  24 N24            5.8311    -1.9252    -4.7057 N.am    
  25 Cl25           3.4469    -2.6925    -0.2421 Cl      
  26 C26           -2.2928     3.8255     0.7078 C.3     
  27 C27           -2.9049     3.4123     2.0477 C.3     
  28 C28           -2.1861     5.3505     0.6444 C.3     
  29 C29           -3.1819     3.3286    -0.4339 C.3     
  30 H30            0.9336    -0.4782     1.4530 H       
  31 H31           -0.5718    -0.6169     0.5069 H       
  32 H32            1.4183    -1.7019    -0.6104 H       
  33 H33            0.6700    -0.4164    -1.5889 H       
  34 H34            3.2722     2.0332    -0.9536 H       
  35 H35            1.7296     1.7184    -1.7851 H       
  36 H36            1.2863     3.1269     0.1629 H       
  37 H37            2.1597     1.9922     1.2260 H       
  38 H38            5.0661    -3.2103    -2.5254 H       
  39 H39            4.7443     0.4834    -4.6553 H       
  40 H40            3.2693     1.3701    -2.8963 H       
  41 H41            8.5556     0.2427    -6.7536 H       
  42 H42           10.1510    -0.7182    -8.3997 H       
  43 H43           10.0848    -3.1628    -8.8351 H       
  44 H44            8.4521    -4.5624    -7.6336 H       
  45 H45            5.7823    -2.8627    -4.9500 H       
  46 H46           -2.2715     3.7663     2.8611 H       
  47 H47           -3.8984     3.8503     2.1438 H       
  48 H48           -2.9809     2.3259     2.0929 H       
  49 H49           -1.7500     5.6448    -0.3102 H       
  50 H50           -3.1796     5.7885     0.7405 H       
  51 H51           -1.5527     5.7045     1.4578 H       
  52 H52           -3.2579     2.2422    -0.3888 H       
  53 H53           -4.1753     3.7666    -0.3378 H       
  54 H54           -2.7458     3.6229    -1.3885 H       
@<TRIPOS>BOND
   1    1    2 1
   2    1    6 1
   3    1    7 am
   4    2    3 1
   5    2   30 1
   6    2   31 1
   7    3    4 1
   8    3   32 1
   9    3   33 1
  10    4    5 1
  11    4   10 1
  12    5    6 1
  13    5   34 1
  14    5   35 1
  15    6   36 1
  16    6   37 1
  17    7    8 2
  18    7    9 1
  19    9   26 1
  20   10   11 ar
  21   10   15 ar
  22   11   12 ar
  23   11   25 1
  24   12   13 ar
  25   12   38 1
  26   13   14 ar
  27   13   24 1
  28   14   15 ar
  29   14   39 1
  30   15   40 1
  31   16   17 ar
  32   16   21 ar
  33   16   22 1
  34   17   18 ar
  35   17   41 1
  36   18   19 ar
  37   18   42 1
  38   19   20 ar
  39   19   43 1
  40   20   21 ar
  41   20   44 1
  42   22   23 2
  43   22   24 am
  44   24   45 1
  45   26   27 1
  46   26   29 1
  47   26   28 1
  48   27   46 1
  49   27   47 1
  50   27   48 1
  51   28   49 1
  52   28   50 1
  53   28   51 1
  54   29   52 1
  55   29   53 1
  56   29   54 1

#	End of record

