#	Name: ASD01812584
#	Creating user name:	WinNT
#	Creation time:	15. 06. 2019 19:28

#	Modifying user name:	WinNT
#	Modification time:	15. 06. 2019 19:28

#	Program:	/corina/corina34_cracker 3.40 0067  02.08.2006

@<TRIPOS>MOLECULE
ASD01812584
  67   71    0    0    0
SMALL
NO_CHARGES


@<TRIPOS>ATOM
   1 C1             1.5313    -1.9447    13.2482 C.3     
   2 C2             1.1193    -3.2723    12.6662 C.ar    
   3 C3             1.4688    -4.4598    13.2901 C.ar    
   4 C4             1.0732    -5.6585    12.7268 C.ar    
   5 N5             0.3721    -5.6802    11.6103 N.ar    
   6 C6             0.0219    -4.5704    10.9897 C.ar    
   7 C7             0.3766    -3.3349    11.4967 C.ar    
   8 C8            -0.7798    -4.6506     9.7161 C.3     
   9 C9            -0.1862    -3.6955     8.6769 C.3     
  10 C10           -0.9666    -3.8260     7.3669 C.3     
  11 N11           -0.8893    -5.2111     6.8855 N.3     
  12 C12           -1.5098    -5.3434     5.5606 C.3     
  13 C13           -1.5022    -6.7918     5.1446 C.ar    
  14 C14           -2.6489    -7.5320     5.1628 C.ar    
  15 C15           -2.6163    -8.8786     4.7710 C.ar    
  16 N16           -1.4969    -9.4564     4.3811 N.ar    
  17 C17           -0.3471    -8.7834     4.3430 C.ar    
  18 C18            0.8442    -9.4067     3.9256 C.ar    
  19 C19            2.0035    -8.6955     3.8966 C.ar    
  20 C20            2.0346    -7.3543     4.2748 C.ar    
  21 C21            0.9035    -6.7165     4.6847 C.ar    
  22 C22           -0.3134    -7.4156     4.7214 C.ar    
  23 C23           -3.8695    -9.6707     4.7963 C.2     
  24 O24           -4.9087    -9.1524     5.1535 O.2     
  25 N25           -3.8558   -10.9657     4.4231 N.am    
  26 C26           -5.0940   -11.7483     4.4481 C.3     
  27 H27           -5.7108   -11.4282     5.2879 H       
  28 C28           -5.8607   -11.5364     3.1391 C.3     
  29 C29           -7.1123   -12.4180     3.1413 C.3     
  30 O30           -6.7305   -13.7845     3.3121 O.3     
  31 C31           -6.0516   -14.0514     4.5409 C.3     
  32 C32           -4.7574   -13.2352     4.5971 C.3     
  33 H33           -4.0988   -13.5427     3.7849 H       
  34 O34           -4.1066   -13.4543     5.8503 O.3     
  35 C35           -1.4960    -6.1417     7.8460 C.3     
  36 C36           -0.7315    -6.0804     9.1702 C.3     
  37 C37           -2.1766    -4.2754     9.9898 C.1     
  38 N38           -3.2546    -3.9859    10.2009 N.1     
  39 H39            0.7627    -1.5963    13.9382 H       
  40 H40            2.4744    -2.0592    13.7826 H       
  41 H41            1.6547    -1.2184    12.4449 H       
  42 H42            2.0433    -4.4486    14.2046 H       
  43 H43            1.3418    -6.5881    13.2066 H       
  44 H44            0.0829    -2.4296    10.9863 H       
  45 H45           -0.2568    -2.6709     9.0420 H       
  46 H46            0.8596    -3.9498     8.5044 H       
  47 H47           -2.0094    -3.5582     7.5372 H       
  48 H48           -0.5374    -3.1576     6.6204 H       
  49 H49           -2.5376    -4.9830     5.6031 H       
  50 H50           -0.9479    -4.7542     4.8358 H       
  51 H51           -3.5787    -7.0822     5.4784 H       
  52 H52            0.8379   -10.4454     3.6300 H       
  53 H53            2.9147    -9.1782     3.5757 H       
  54 H54            2.9689    -6.8134     4.2426 H       
  55 H55            0.9413    -5.6771     4.9753 H       
  56 H56           -3.0262   -11.3795     4.1380 H       
  57 H57           -6.1525   -10.4897     3.0532 H       
  58 H58           -5.2250   -11.8086     2.2965 H       
  59 H59           -7.7665   -12.1183     3.9600 H       
  60 H60           -7.6393   -12.3035     2.1941 H       
  61 H61           -6.6919   -13.7731     5.3779 H       
  62 H62           -5.8144   -15.1135     4.6019 H       
  63 H63           -3.8642   -14.3764     6.0117 H       
  64 H64           -2.5364    -5.8631     8.0140 H       
  65 H65           -1.4514    -7.1552     7.4474 H       
  66 H66            0.3057    -6.3721     9.0055 H       
  67 H67           -1.1916    -6.7596     9.8879 H       
@<TRIPOS>BOND
   1    1    2 1
   2    1   39 1
   3    1   40 1
   4    1   41 1
   5    2    7 ar
   6    2    3 ar
   7    3    4 ar
   8    3   42 1
   9    4    5 ar
  10    4   43 1
  11    5    6 ar
  12    6    7 ar
  13    6    8 1
  14    7   44 1
  15    8   36 1
  16    8    9 1
  17    8   37 1
  18    9   10 1
  19    9   45 1
  20    9   46 1
  21   10   11 1
  22   10   47 1
  23   10   48 1
  24   11   12 1
  25   11   35 1
  26   12   13 1
  27   12   49 1
  28   12   50 1
  29   13   22 ar
  30   13   14 ar
  31   14   15 ar
  32   14   51 1
  33   15   16 ar
  34   15   23 1
  35   16   17 ar
  36   17   22 ar
  37   17   18 ar
  38   18   19 ar
  39   18   52 1
  40   19   20 ar
  41   19   53 1
  42   20   21 ar
  43   20   54 1
  44   21   22 ar
  45   21   55 1
  46   23   24 2
  47   23   25 am
  48   25   26 1
  49   25   56 1
  50   26   27 1
  51   26   32 1
  52   26   28 1
  53   28   29 1
  54   28   57 1
  55   28   58 1
  56   29   30 1
  57   29   59 1
  58   29   60 1
  59   30   31 1
  60   31   32 1
  61   31   61 1
  62   31   62 1
  63   32   33 1
  64   32   34 1
  65   34   63 1
  66   35   36 1
  67   35   64 1
  68   35   65 1
  69   36   66 1
  70   36   67 1
  71   37   38 3

#	End of record

