#	Name: ASD01208583
#	Creating user name:	WinNT
#	Creation time:	15. 06. 2019 19:10

#	Modifying user name:	WinNT
#	Modification time:	15. 06. 2019 19:10

#	Program:	/corina/corina34_cracker 3.40 0067  02.08.2006

@<TRIPOS>MOLECULE
ASD01208583
  91   94    0    0    0
SMALL
NO_CHARGES


@<TRIPOS>ATOM
   1 C1            -2.3820    -2.8644    -0.4593 C.ar    
   2 C2            -3.1615    -3.8335     0.1642 C.ar    
   3 N3            -1.3539    -2.3303     0.1841 N.ar    
   4 N4            -2.8749    -4.2178     1.3937 N.ar    
   5 C5            -1.8482    -3.6827     2.0327 C.ar    
   6 C6            -1.0721    -2.7198     1.4160 C.ar    
   7 S7            -1.4692    -4.1981     3.6745 S.o2    
   8 O8            -0.8009    -3.0822     4.2467 O.2     
   9 O9            -2.7108    -4.6538     4.1941 O.2     
  10 C10           -0.3212    -5.5860     3.4596 C.3     
  11 O11           -2.6704    -2.4710    -1.7254 O.3     
  12 C12           -1.9313    -1.4664    -2.2652 C.ar    
  13 C13           -0.6462    -1.7207    -2.7237 C.ar    
  14 C14            0.1124    -0.6989    -3.2756 C.ar    
  15 C15           -0.4100     0.5805    -3.3710 C.ar    
  16 C16           -1.7014     0.8406    -2.9114 C.ar    
  17 C17           -2.4636    -0.1915    -2.3624 C.ar    
  18 N18           -3.5080     2.5892    -2.6002 N.pl3   
  19 C19           -2.2630     2.2043    -3.0112 C.2     
  20 C20           -1.6211     3.3044    -3.5333 C.2     
  21 C21           -2.4957     4.3880    -3.4389 C.2     
  22 C22           -3.6595     3.9309    -2.8596 C.2     
  23 O23           -5.9678     4.2281    -1.9998 O.3     
  24 C24           -4.8543     4.7367    -2.5702 C.2     
  25 N25           -4.9384     6.0068    -2.8397 N.2     
  26 C26           -6.2747     6.4821    -2.4316 C.3     
  27 C27           -7.0468     5.1536    -2.2433 C.3     
  28 C28           -7.9866     5.2307    -1.0385 C.3     
  29 O29           -8.6549     3.9782    -0.8748 O.3     
  30 Si30          -9.6838     3.9356     0.3900 Si      
  31 C31          -10.2826     2.1900     0.6450 C.3     
  32 C32          -10.8032     1.6307    -0.6806 C.3     
  33 C33           -9.1262     1.3222     1.1456 C.3     
  34 C34           -8.8054     4.5212     1.9251 C.3     
  35 C35           -9.6465     4.1782     3.1562 C.3     
  36 C36           -7.4442     3.8304     2.0287 C.3     
  37 C37          -11.1386     5.0470     0.0449 C.3     
  38 C38          -10.7648     6.4936     0.3743 C.3     
  39 C39          -11.5206     4.9428    -1.4330 C.3     
  40 O40            1.3702    -0.9532    -3.7230 O.3     
  41 C41            2.0596     0.1206    -4.3662 C.3     
  42 C42            3.1236    -0.4475    -5.3074 C.3     
  43 C43            2.7306     1.0011    -3.3101 C.3     
  44 O44            4.1188    -1.1319    -4.5436 O.3     
  45 C45            5.1651    -1.7034    -5.3315 C.3     
  46 H46           -4.0003    -4.2705    -0.3572 H       
  47 H47           -0.2344    -2.2848     1.9407 H       
  48 H48            0.5655    -5.2448     2.9253 H       
  49 H49           -0.0306    -5.9719     4.4367 H       
  50 H50           -0.8086    -6.3755     2.8875 H       
  51 H51           -0.2356    -2.7169    -2.6501 H       
  52 H52            0.1816     1.3756    -3.8002 H       
  53 H53           -3.4654     0.0046    -2.0098 H       
  54 H54           -4.1748     2.0116    -2.1969 H       
  55 H55           -0.6215     3.3253    -3.9417 H       
  56 H56           -2.2967     5.3996    -3.7606 H       
  57 H57           -6.2210     7.0370    -1.4950 H       
  58 H58           -6.7284     7.0881    -3.2158 H       
  59 H59           -7.5939     4.8875    -3.1478 H       
  60 H60           -7.4096     5.4546    -0.1413 H       
  61 H61           -8.7235     6.0170    -1.2021 H       
  62 H62          -11.0858     2.1853     1.3818 H       
  63 H63          -10.0549     1.7833    -1.4583 H       
  64 H64          -11.0022     0.5646    -0.5720 H       
  65 H65          -11.7235     2.1459    -0.9558 H       
  66 H66           -8.8619     1.6193     2.1605 H       
  67 H67           -9.4292     0.2751     1.1408 H       
  68 H68           -8.2638     1.4538     0.4922 H       
  69 H69           -8.6620     5.6005     1.8722 H       
  70 H70           -9.8539     3.1081     3.1679 H       
  71 H71           -9.0990     4.4520     4.0581 H       
  72 H72          -10.5858     4.7299     3.1198 H       
  73 H73           -7.5900     2.7669     2.2181 H       
  74 H74           -6.8981     3.9615     1.0945 H       
  75 H75           -6.8748     4.2705     2.8473 H       
  76 H76          -11.9840     4.7409     0.6611 H       
  77 H77          -10.0119     6.8441    -0.3318 H       
  78 H78          -11.6515     7.1234     0.3023 H       
  79 H79          -10.3646     6.5439     1.3869 H       
  80 H80          -10.6340     5.0930    -2.0489 H       
  81 H81          -11.9381     3.9557    -1.6317 H       
  82 H82          -12.2620     5.7055    -1.6713 H       
  83 H83            1.3493     0.7172    -4.9386 H       
  84 H84            2.6577    -1.1441    -6.0043 H       
  85 H85            3.5886     0.3664    -5.8637 H       
  86 H86            3.4409     0.4045    -2.7376 H       
  87 H87            3.2564     1.8202    -3.8007 H       
  88 H88            1.9726     1.4059    -2.6395 H       
  89 H89            4.7414    -2.4261    -6.0289 H       
  90 H90            5.6724    -0.9155    -5.8882 H       
  91 H91            5.8794    -2.2045    -4.6783 H       
@<TRIPOS>BOND
   1    1    2 ar
   2    1    3 ar
   3    1   11 1
   4    2    4 ar
   5    2   46 1
   6    3    6 ar
   7    4    5 ar
   8    5    6 ar
   9    5    7 1
  10    6   47 1
  11    7    8 2
  12    7    9 2
  13    7   10 1
  14   10   48 1
  15   10   49 1
  16   10   50 1
  17   11   12 1
  18   12   13 ar
  19   12   17 ar
  20   13   14 ar
  21   13   51 1
  22   14   15 ar
  23   14   40 1
  24   15   16 ar
  25   15   52 1
  26   16   17 ar
  27   16   19 1
  28   17   53 1
  29   18   19 1
  30   18   22 1
  31   18   54 1
  32   19   20 2
  33   20   21 1
  34   20   55 1
  35   21   22 2
  36   21   56 1
  37   22   24 1
  38   23   24 1
  39   23   27 1
  40   24   25 2
  41   25   26 1
  42   26   27 1
  43   26   57 1
  44   26   58 1
  45   27   28 1
  46   27   59 1
  47   28   29 1
  48   28   60 1
  49   28   61 1
  50   29   30 1
  51   30   31 1
  52   30   34 1
  53   30   37 1
  54   31   32 1
  55   31   33 1
  56   31   62 1
  57   32   63 1
  58   32   64 1
  59   32   65 1
  60   33   66 1
  61   33   67 1
  62   33   68 1
  63   34   35 1
  64   34   36 1
  65   34   69 1
  66   35   70 1
  67   35   71 1
  68   35   72 1
  69   36   73 1
  70   36   74 1
  71   36   75 1
  72   37   38 1
  73   37   39 1
  74   37   76 1
  75   38   77 1
  76   38   78 1
  77   38   79 1
  78   39   80 1
  79   39   81 1
  80   39   82 1
  81   40   41 1
  82   41   42 1
  83   41   43 1
  84   41   83 1
  85   42   44 1
  86   42   84 1
  87   42   85 1
  88   43   86 1
  89   43   87 1
  90   43   88 1
  91   44   45 1
  92   45   89 1
  93   45   90 1
  94   45   91 1

#	End of record

