#	Name: ASD00310342
#	Creating user name:	WinNT
#	Creation time:	15. 06. 2019 18:34

#	Modifying user name:	WinNT
#	Modification time:	15. 06. 2019 18:34

#	Program:	/corina/corina34_cracker 3.40 0067  02.08.2006

@<TRIPOS>MOLECULE
ASD00310342
  52   53    0    0    0
SMALL
NO_CHARGES


@<TRIPOS>ATOM
   1 P1            -0.0198     1.6058     0.0109 P.3     
   2 O2             0.0021    -0.0041     0.0020 O.3     
   3 O3             1.3687     2.1180     0.0004 O.2     
   4 O4            -0.7984     2.1391    -1.2935 O.3     
   5 C5            -0.8688     2.1908     1.5033 C.2     
   6 C6            -0.3189     1.9348    -2.6240 C.3     
   7 O7            -1.2442     2.5334    -3.5693 O.3     
   8 C8            -1.2282     3.8716    -3.6737 C.2     
   9 C9            -2.1606     4.5637    -4.6342 C.3     
  10 O10           -0.4661     4.5211    -2.9976 O.2     
  11 C11           -1.9409     6.0759    -4.5579 C.3     
  12 C12           -1.8788     4.0785    -6.0576 C.3     
  13 C13            0.6906    -0.7676    -0.9904 C.3     
  14 C14            0.5083    -2.2594    -0.7035 C.3     
  15 C15            1.2344    -3.0647    -1.7501 C.2     
  16 C16            1.2101    -4.5704    -1.6934 C.3     
  17 O17            1.8356    -2.5033    -2.6343 O.2     
  18 C18            0.0126    -5.0916    -2.4903 C.3     
  19 C19            2.5032    -5.1243    -2.2951 C.3     
  20 C20           -1.1549     3.4760     1.7920 C.2     
  21 C21           -1.8132     3.4825     3.0372 C.2     
  22 C22           -1.8937     2.1879     3.4444 C.2     
  23 O23           -1.3216     1.4152     2.5008 O.3     
  24 C24           -2.5078     1.7106     4.7012 C.2     
  25 C25           -2.6034     0.3644     5.1473 C.2     
  26 C26           -3.2451     0.4618     6.3432 C.2     
  27 O27           -3.4864     1.7668     6.5432 O.3     
  28 N28           -3.0702     2.4457     5.6337 N.2     
  29 O29           -3.5757    -0.5588     7.1702 O.3     
  30 H30            0.6616     2.3986    -2.7320 H       
  31 H31           -0.2388     0.8658    -2.8212 H       
  32 H32           -3.1923     4.3326    -4.3691 H       
  33 H33           -0.9092     6.3070    -4.8230 H       
  34 H34           -2.6154     6.5765    -5.2527 H       
  35 H35           -2.1417     6.4216    -3.5439 H       
  36 H36           -0.8471     4.3095    -6.3226 H       
  37 H37           -2.0353     3.0011    -6.1119 H       
  38 H38           -2.5533     4.5791    -6.7523 H       
  39 H39            0.2843    -0.5347    -1.9747 H       
  40 H40            1.7519    -0.5203    -0.9676 H       
  41 H41            0.9146    -2.4924     0.2808 H       
  42 H42           -0.5530    -2.5067    -0.7263 H       
  43 H43            1.1246    -4.8935    -0.6559 H       
  44 H44           -0.9086    -4.6970    -2.0616 H       
  45 H45            0.0981    -4.7684    -3.5278 H       
  46 H46           -0.0049    -6.1807    -2.4493 H       
  47 H47            3.3564    -4.7530    -1.7273 H       
  48 H48            2.4857    -6.2134    -2.2540 H       
  49 H49            2.5888    -4.8011    -3.3326 H       
  50 H50           -0.9227     4.3377     1.1838 H       
  51 H51           -2.1824     4.3486     3.5663 H       
  52 H52           -2.2497    -0.5278     4.6521 H       
@<TRIPOS>BOND
   1    1    2 1
   2    1    3 2
   3    1    4 1
   4    1    5 1
   5    2   13 1
   6    4    6 1
   7    5   20 2
   8    5   23 1
   9    6    7 1
  10    6   30 1
  11    6   31 1
  12    7    8 1
  13    8    9 1
  14    8   10 2
  15    9   11 1
  16    9   12 1
  17    9   32 1
  18   11   33 1
  19   11   34 1
  20   11   35 1
  21   12   36 1
  22   12   37 1
  23   12   38 1
  24   13   14 1
  25   13   39 1
  26   13   40 1
  27   14   15 1
  28   14   41 1
  29   14   42 1
  30   15   16 1
  31   15   17 2
  32   16   18 1
  33   16   19 1
  34   16   43 1
  35   18   44 1
  36   18   45 1
  37   18   46 1
  38   19   47 1
  39   19   48 1
  40   19   49 1
  41   20   21 1
  42   20   50 1
  43   21   22 2
  44   21   51 1
  45   22   23 1
  46   22   24 1
  47   24   25 1
  48   24   28 2
  49   25   26 2
  50   25   52 1
  51   26   27 1
  52   26   29 1
  53   27   28 1

#	End of record

