#	Name: ASD03330036
#	Creating user name:	WinNT
#	Creation time:	15. 06. 2019 20:36

#	Modifying user name:	WinNT
#	Modification time:	15. 06. 2019 20:36

#	Program:	/corina/corina34_cracker 3.40 0067  02.08.2006

@<TRIPOS>MOLECULE
ASD03330036
  64   68    0    0    0
SMALL
NO_CHARGES


@<TRIPOS>ATOM
   1 N1            -0.0167     1.3772     0.0096 N.pl3   
   2 C2             0.0021    -0.0041     0.0020 C.2     
   3 C3             1.2915    -0.4320    -0.0126 C.2     
   4 C4             2.1257     0.7121    -0.0144 C.ar    
   5 C5             3.5154     0.8895    -0.0271 C.ar    
   6 C6             4.0390     2.1504    -0.0257 C.ar    
   7 C7             3.2050     3.2628    -0.0118 C.ar    
   8 C8             1.8365     3.1135     0.0008 C.ar    
   9 C9             1.2792     1.8376    -0.0003 C.ar    
  10 C10           -1.1845    -0.8728     0.0091 C.2     
  11 O11           -1.0529    -2.0821     0.0018 O.2     
  12 N12           -2.4176    -0.3291     0.0237 N.am    
  13 C13           -3.5996    -1.1946     0.0308 C.3     
  14 C14           -4.8632    -0.3320     0.0473 C.3     
  15 C15           -6.0791    -1.2222     0.0546 C.ar    
  16 C16           -6.6242    -1.6357     1.2563 C.ar    
  17 C17           -7.7384    -2.4516     1.2666 C.ar    
  18 C18           -8.3117    -2.8568     0.0679 C.ar    
  19 C19           -7.7616    -2.4395    -1.1375 C.ar    
  20 C20           -6.6507    -1.6191    -1.1405 C.ar    
  21 N21           -9.4384    -3.6823     0.0746 N.3     
  22 C22           -9.8762    -3.9862    -1.2937 C.3     
  23 C23          -11.0176    -5.0048    -1.2510 C.3     
  24 C24          -12.1805    -4.4273    -0.4394 C.3     
  25 C25          -11.6860    -4.0744     0.9661 C.3     
  26 C26          -10.5253    -3.0827     0.8592 C.3     
  27 Cl27           5.7614     2.3667    -0.0409 Cl      
  28 C28            1.7515    -1.8671    -0.0247 C.3     
  29 C29            1.8918    -2.3376    -1.4494 C.ar    
  30 C30            3.0962    -2.1880    -2.1113 C.ar    
  31 C31            3.2249    -2.6196    -3.4182 C.ar    
  32 C32            2.1494    -3.2012    -4.0631 C.ar    
  33 C33            0.9453    -3.3516    -3.4010 C.ar    
  34 C34            0.8179    -2.9240    -2.0926 C.ar    
  35 H35           -0.8129     1.9312     0.0165 H       
  36 H36            4.1708     0.0311    -0.0376 H       
  37 H37            3.6349     4.2535    -0.0106 H       
  38 H38            1.1970     3.9837     0.0119 H       
  39 H39           -2.5225     0.6352     0.0296 H       
  40 H40           -3.5979    -1.8193    -0.8624 H       
  41 H41           -3.5807    -1.8282     0.9175 H       
  42 H42           -4.8650     0.2928     0.9405 H       
  43 H43           -4.8821     0.3017    -0.8394 H       
  44 H44           -6.1778    -1.3206     2.1879 H       
  45 H45           -8.1634    -2.7745     2.2055 H       
  46 H46           -8.2049    -2.7527    -2.0712 H       
  47 H47           -6.2253    -1.2905    -2.0772 H       
  48 H48          -10.2231    -3.0721    -1.7755 H       
  49 H49           -9.0411    -4.4000    -1.8588 H       
  50 H50          -11.3528    -5.2184    -2.2660 H       
  51 H51          -10.6675    -5.9242    -0.7818 H       
  52 H52          -12.5562    -3.5292    -0.9296 H       
  53 H53          -12.9786    -5.1664    -0.3699 H       
  54 H54          -12.4989    -3.6232     1.5352 H       
  55 H55          -11.3465    -4.9791     1.4702 H       
  56 H56          -10.1616    -2.8404     1.8577 H       
  57 H57          -10.8691    -2.1728     0.3673 H       
  58 H58            2.7145    -1.9442     0.4800 H       
  59 H59            1.0196    -2.4876     0.4925 H       
  60 H60            3.9364    -1.7336    -1.6074 H       
  61 H61            4.1656    -2.5020    -3.9355 H       
  62 H62            2.2497    -3.5377    -5.0845 H       
  63 H63            0.1049    -3.8057    -3.9050 H       
  64 H64           -0.1218    -3.0449    -1.5741 H       
@<TRIPOS>BOND
   1    1    2 1
   2    1    9 1
   3    1   35 1
   4    2    3 2
   5    2   10 1
   6    3    4 1
   7    3   28 1
   8    4    5 ar
   9    4    9 ar
  10    5    6 ar
  11    5   36 1
  12    6    7 ar
  13    6   27 1
  14    7    8 ar
  15    7   37 1
  16    8    9 ar
  17    8   38 1
  18   10   11 2
  19   10   12 am
  20   12   13 1
  21   12   39 1
  22   13   14 1
  23   13   40 1
  24   13   41 1
  25   14   15 1
  26   14   42 1
  27   14   43 1
  28   15   16 ar
  29   15   20 ar
  30   16   17 ar
  31   16   44 1
  32   17   18 ar
  33   17   45 1
  34   18   19 ar
  35   18   21 1
  36   19   20 ar
  37   19   46 1
  38   20   47 1
  39   21   22 1
  40   21   26 1
  41   22   23 1
  42   22   48 1
  43   22   49 1
  44   23   24 1
  45   23   50 1
  46   23   51 1
  47   24   25 1
  48   24   52 1
  49   24   53 1
  50   25   26 1
  51   25   54 1
  52   25   55 1
  53   26   56 1
  54   26   57 1
  55   28   29 1
  56   28   58 1
  57   28   59 1
  58   29   30 ar
  59   29   34 ar
  60   30   31 ar
  61   30   60 1
  62   31   32 ar
  63   31   61 1
  64   32   33 ar
  65   32   62 1
  66   33   34 ar
  67   33   63 1
  68   34   64 1

#	End of record

