#	Name: ASD01010005
#	Creating user name:	WinNT
#	Creation time:	15. 06. 2019 18:56

#	Modifying user name:	WinNT
#	Modification time:	15. 06. 2019 18:56

#	Program:	/corina/corina34_cracker 3.40 0067  02.08.2006

@<TRIPOS>MOLECULE
ASD01010005
  17   17    0    0    0
SMALL
NO_CHARGES


@<TRIPOS>ATOM
   1 C1            -0.0179     1.4711     0.0101 C.2     
   2 C2             0.0021    -0.0041     0.0020 C.ar    
   3 C3             1.2231    -0.6924    -0.0133 C.ar    
   4 O4             2.3927    -0.0052    -0.0208 O.3     
   5 C5             1.2300    -2.0790    -0.0204 C.ar    
   6 C6             0.0386    -2.7773    -0.0127 C.ar    
   7 C7            -1.1699    -2.1008     0.0024 C.ar    
   8 C8            -1.1954    -0.7228     0.0154 C.ar    
   9 O9             1.0267     2.0934     0.0035 O.2     
  10 N10           -1.1942     2.1291     0.0193 N.am    
  11 H11            2.7402     0.1893     0.8603 H       
  12 H12            2.1684    -2.6136    -0.0322 H       
  13 H13            0.0492    -3.8572    -0.0190 H       
  14 H14           -2.0965    -2.6557     0.0083 H       
  15 H15           -2.1400    -0.1995     0.0318 H       
  16 H16           -2.0275     1.6327     0.0205 H       
  17 H17           -1.2073     3.0990     0.0246 H       
@<TRIPOS>BOND
   1    1    2 1
   2    1    9 2
   3    1   10 am
   4    2    3 ar
   5    2    8 ar
   6    3    4 1
   7    3    5 ar
   8    4   11 1
   9    5    6 ar
  10    5   12 1
  11    6    7 ar
  12    6   13 1
  13    7    8 ar
  14    7   14 1
  15    8   15 1
  16   10   16 1
  17   10   17 1

#	End of record

