#	Name: ASD01410640
#	Creating user name:	WinNT
#	Creation time:	15. 06. 2019 19:18

#	Modifying user name:	WinNT
#	Modification time:	15. 06. 2019 19:18

#	Program:	/corina/corina34_cracker 3.40 0067  02.08.2006

@<TRIPOS>MOLECULE
ASD01410640
  68   72    0    0    0
SMALL
NO_CHARGES


@<TRIPOS>ATOM
   1 C1             0.9383     2.0951     3.0040 C.ar    
   2 C2             1.6885     1.6454     4.0816 C.ar    
   3 C3             2.9403     1.1077     3.8559 C.ar    
   4 N4             3.4274     1.0181     2.6332 N.ar    
   5 C5             2.7427     1.4357     1.5809 C.ar    
   6 C6             1.4770     1.9869     1.7336 C.ar    
   7 O7             3.2821     1.3246     0.3411 O.3     
   8 C8             4.5601     0.8719     0.2392 C.ar    
   9 C9             4.8577    -0.4436     0.5746 C.ar    
  10 C10            6.1515    -0.9134     0.4749 C.ar    
  11 C11            7.1664    -0.0731     0.0379 C.ar    
  12 C12            6.8724     1.2563    -0.3024 C.ar    
  13 C13            5.5586     1.7205    -0.2033 C.ar    
  14 N14            8.4723    -0.5478    -0.0622 N.am    
  15 C15            8.9480    -0.9660    -1.2518 C.2     
  16 C16            9.3285    -0.5923     1.1258 C.3     
  17 O17           10.0872    -1.3801    -1.3391 O.2     
  18 C18            8.0826    -0.9210    -2.4525 C.ar    
  19 C19            9.8037    -2.0337     1.3792 C.3     
  20 N20            6.8388    -0.4675    -2.3506 N.ar    
  21 C21            6.0379    -0.4105    -3.3916 C.ar    
  22 C22            6.4671    -0.8254    -4.6439 C.ar    
  23 C23            7.7594    -1.3060    -4.7944 C.ar    
  24 C24            8.5824    -1.3494    -3.6804 C.ar    
  25 Br25           5.3018    -0.7371    -6.1305 Br      
  26 C26           10.5964     0.2557     0.8953 C.3     
  27 C27           11.7201    -0.5411     1.6036 C.3     
  28 C28           11.3438    -2.0114     1.2940 C.3     
  29 O29           10.4489     1.5473     1.4886 O.3     
  30 C30           11.2755     2.5544     0.9015 C.3     
  31 C31           11.0857     3.8538     1.6408 C.ar    
  32 C32           11.9576     4.2063     2.6540 C.ar    
  33 C33           11.7835     5.3982     3.3321 C.ar    
  34 C34           10.7379     6.2379     2.9968 C.ar    
  35 C35            9.8665     5.8859     1.9830 C.ar    
  36 C36           10.0432     4.6959     1.3020 C.ar    
  37 C37            0.7007     2.4612     0.5321 C.3     
  38 F38           -0.5344     2.9711     0.9465 F       
  39 F39            1.4230     3.4641    -0.1235 F       
  40 F40            0.4930     1.3889    -0.3420 F       
  41 C41            7.9430     2.1562    -0.7674 C.2     
  42 O42            9.0609     1.7212    -0.9612 O.2     
  43 O43            7.6821     3.4615    -0.9777 O.3     
  44 H44           -0.0453     2.5156     3.1529 H       
  45 H45            1.2977     1.7156     5.0860 H       
  46 H46            3.5282     0.7563     4.6910 H       
  47 H47            4.0722    -1.1017     0.9156 H       
  48 H48            6.3749    -1.9369     0.7378 H       
  49 H49            5.3245     2.7422    -0.4633 H       
  50 H50            8.7827    -0.2211     1.9932 H       
  51 H51            9.4893    -2.3617     2.3700 H       
  52 H52            9.3973    -2.7001     0.6184 H       
  53 H53            5.0322    -0.0359    -3.2702 H       
  54 H54            8.1174    -1.6354    -5.7587 H       
  55 H55            9.5944    -1.7178    -3.7612 H       
  56 H56           10.8064     0.3461    -0.1704 H       
  57 H57           12.6940    -0.2944     1.1808 H       
  58 H58           11.7062    -0.3567     2.6778 H       
  59 H59           11.7768    -2.6806     2.0375 H       
  60 H60           11.6745    -2.2870     0.2927 H       
  61 H61           12.3200     2.2495     0.9648 H       
  62 H62           10.9985     2.6876    -0.1442 H       
  63 H63           12.7746     3.5503     2.9159 H       
  64 H64           12.4643     5.6733     4.1241 H       
  65 H65           10.6015     7.1688     3.5271 H       
  66 H66            9.0494     6.5417     1.7213 H       
  67 H67            9.3624     4.4209     0.5099 H       
  68 H68            8.4278     4.0231    -1.2299 H       
@<TRIPOS>BOND
   1    1    2 ar
   2    1    6 ar
   3    1   44 1
   4    2    3 ar
   5    2   45 1
   6    3    4 ar
   7    3   46 1
   8    4    5 ar
   9    5    6 ar
  10    5    7 1
  11    6   37 1
  12    7    8 1
  13    8    9 ar
  14    8   13 ar
  15    9   10 ar
  16    9   47 1
  17   10   11 ar
  18   10   48 1
  19   11   12 ar
  20   11   14 1
  21   12   13 ar
  22   12   41 1
  23   13   49 1
  24   14   15 am
  25   14   16 1
  26   15   17 2
  27   15   18 1
  28   16   19 1
  29   16   26 1
  30   16   50 1
  31   18   20 ar
  32   18   24 ar
  33   19   28 1
  34   19   51 1
  35   19   52 1
  36   20   21 ar
  37   21   22 ar
  38   21   53 1
  39   22   23 ar
  40   22   25 1
  41   23   24 ar
  42   23   54 1
  43   24   55 1
  44   26   27 1
  45   26   29 1
  46   26   56 1
  47   27   28 1
  48   27   57 1
  49   27   58 1
  50   28   59 1
  51   28   60 1
  52   29   30 1
  53   30   31 1
  54   30   61 1
  55   30   62 1
  56   31   32 ar
  57   31   36 ar
  58   32   33 ar
  59   32   63 1
  60   33   34 ar
  61   33   64 1
  62   34   35 ar
  63   34   65 1
  64   35   36 ar
  65   35   66 1
  66   36   67 1
  67   37   38 1
  68   37   39 1
  69   37   40 1
  70   41   42 2
  71   41   43 1
  72   43   68 1

#	End of record

