#	Name: ASD01811391
#	Creating user name:	WinNT
#	Creation time:	15. 06. 2019 19:26

#	Modifying user name:	WinNT
#	Modification time:	15. 06. 2019 19:26

#	Program:	/corina/corina34_cracker 3.40 0067  02.08.2006

@<TRIPOS>MOLECULE
ASD01811391
  19   19    0    0    0
SMALL
NO_CHARGES


@<TRIPOS>ATOM
   1 C1            -0.0168     1.3884     0.0097 C.ar    
   2 C2             0.0021    -0.0041     0.0020 C.ar    
   3 C3             1.2218    -0.6611    -0.0131 C.ar    
   4 C4             2.3821     0.0977    -0.0201 C.ar    
   5 C5             2.2894     1.4801    -0.0118 C.ar    
   6 N6             1.1164     2.0787     0.0026 N.ar    
   7 C7            -1.3144     2.1058     0.0197 C.2     
   8 N8            -2.4291     1.4344     0.0213 N.2     
   9 N9            -1.3399     3.4833     0.0273 N.pl3   
  10 C10            3.7308    -0.5745    -0.0361 C.3     
  11 Br11           3.8680     2.5212    -0.0206 Br      
  12 H12           -0.9213    -0.5641     0.0082 H       
  13 H13            1.2677    -1.7401    -0.0190 H       
  14 H14           -3.2779     1.9037     0.0278 H       
  15 H15           -0.5090     3.9838     0.0261 H       
  16 H16           -2.1887     3.9527     0.0338 H       
  17 H17            4.0464    -0.7313    -1.0675 H       
  18 H18            4.4577     0.0574     0.4742 H       
  19 H19            3.6638    -1.5356     0.4735 H       
@<TRIPOS>BOND
   1    1    2 ar
   2    1    6 ar
   3    1    7 1
   4    2    3 ar
   5    2   12 1
   6    3    4 ar
   7    3   13 1
   8    4    5 ar
   9    4   10 1
  10    5    6 ar
  11    5   11 1
  12    7    8 2
  13    7    9 1
  14    8   14 1
  15    9   15 1
  16    9   16 1
  17   10   17 1
  18   10   18 1
  19   10   19 1

#	End of record

