#	Name: ASD05430137
#	Creating user name:	WinNT
#	Creation time:	15. 06. 2019 20:59

#	Modifying user name:	WinNT
#	Modification time:	15. 06. 2019 20:59

#	Program:	/corina/corina34_cracker 3.40 0067  02.08.2006

@<TRIPOS>MOLECULE
ASD05430137
  64   70    0    0    0
SMALL
NO_CHARGES


@<TRIPOS>ATOM
   1 C1             0.1881     1.1568    -1.0572 C.ar    
   2 C2             0.0179    -0.0116    -0.3117 C.ar    
   3 C3             1.0353    -0.4662     0.5131 C.ar    
   4 C4             2.2273     0.2253     0.6105 C.ar    
   5 C5             2.4229     1.3948    -0.1238 C.ar    
   6 C6             1.3928     1.8662    -0.9668 C.ar    
   7 C7             4.8975    -0.0455    -0.0823 C.3     
   8 C8             4.8545     1.4584     0.0680 C.2     
   9 C9             3.6898     2.1308    -0.0203 C.2     
  10 C10            6.3053    -0.4967    -0.4571 C.3     
  11 C11            7.1178     0.5388    -1.2316 C.3     
  12 N12            7.2274     1.7560    -0.4274 N.pl3   
  13 C13            6.1217     2.1673     0.3142 C.2     
  14 C14            8.3310     3.7082    -1.3575 C.ar    
  15 C15            9.4209     4.0827    -2.1210 C.ar    
  16 C16            9.3124     5.1327    -3.0129 C.ar    
  17 C17            8.1115     5.8098    -3.1416 C.ar    
  18 C18            7.0206     5.4338    -2.3763 C.ar    
  19 C19            7.1315     4.3834    -1.4851 C.ar    
  20 N20           -1.1839    -0.7260    -0.3972 N.pl3   
  21 C21           -1.3179    -2.0714    -0.6245 C.2     
  22 C22           -2.6382    -2.3366    -0.6285 C.2     
  23 N23           -3.2967    -1.1887    -0.4101 N.2     
  24 C24           -2.4366    -0.2176    -0.2646 C.2     
  25 C25           -3.2671    -3.6893    -0.8419 C.3     
  26 N26            6.2229     3.1167     1.1864 N.2     
  27 N27            0.0845     2.9663    -2.3956 N.2     
  28 O28           -0.6006     1.8225    -1.9257 O.3     
  29 C29            8.4489     2.5590    -0.3897 C.3     
  30 C30            8.6278     3.0986     1.0334 C.3     
  31 O31            7.4436     3.7671     1.4553 O.3     
  32 F32            8.0044     6.8367    -4.0128 F       
  33 C33            7.0779    -1.1197     0.7170 C.3     
  34 O34            7.4851    -2.1237    -0.2350 O.3     
  35 C35            6.3471    -1.8967    -1.0915 C.3     
  36 C36            1.2628     3.0226    -1.8524 C.2     
  37 C37            8.9202     1.9359     1.9840 C.3     
  38 O38            9.2023     2.4466     3.2885 O.3     
  39 H39            0.8943    -1.3707     1.0861 H       
  40 H40            3.0104    -0.1408     1.2579 H       
  41 H41            4.6078    -0.5111     0.8597 H       
  42 H42            4.2006    -0.3506    -0.8629 H       
  43 H43            3.6880     3.2108    -0.0150 H       
  44 H44            8.1136     0.1443    -1.4338 H       
  45 H45            6.6163     0.7669    -2.1721 H       
  46 H46           10.3576     3.5546    -2.0203 H       
  47 H47           10.1641     5.4253    -3.6091 H       
  48 H48            6.0834     5.9612    -2.4758 H       
  49 H49            6.2807     4.0900    -0.8880 H       
  50 H50           -0.5182    -2.7820    -0.7724 H       
  51 H51           -2.6804     0.8177    -0.0773 H       
  52 H52           -3.3867    -4.1901     0.1189 H       
  53 H53           -4.2431    -3.5662    -1.3114 H       
  54 H54           -2.6265    -4.2901    -1.4875 H       
  55 H55            9.3044     1.9389    -0.6576 H       
  56 H56            9.4639     3.7977     1.0525 H       
  57 H57            7.8971    -0.5014     1.0839 H       
  58 H58            6.4386    -1.5004     1.5135 H       
  59 H59            5.4831    -2.5162    -0.8509 H       
  60 H60            6.5885    -1.8925    -2.1544 H       
  61 H61            2.0100     3.7833    -2.0241 H       
  62 H62            8.0523     1.2781     2.0311 H       
  63 H63            9.7812     1.3759     1.6190 H       
  64 H64            9.3973     1.7635     3.9446 H       
@<TRIPOS>BOND
   1    1    2 ar
   2    1    6 ar
   3    1   28 1
   4    2    3 ar
   5    2   20 1
   6    3    4 ar
   7    3   39 1
   8    4    5 ar
   9    4   40 1
  10    5    6 ar
  11    5    9 1
  12    6   36 1
  13    7    8 1
  14    7   10 1
  15    7   41 1
  16    7   42 1
  17    8    9 2
  18    8   13 1
  19    9   43 1
  20   10   11 1
  21   10   33 1
  22   10   35 1
  23   11   12 1
  24   11   44 1
  25   11   45 1
  26   12   13 1
  27   12   29 1
  28   13   26 2
  29   14   15 ar
  30   14   19 ar
  31   14   29 1
  32   15   16 ar
  33   15   46 1
  34   16   17 ar
  35   16   47 1
  36   17   18 ar
  37   17   32 1
  38   18   19 ar
  39   18   48 1
  40   19   49 1
  41   20   21 1
  42   20   24 1
  43   21   22 2
  44   21   50 1
  45   22   23 1
  46   22   25 1
  47   23   24 2
  48   24   51 1
  49   25   52 1
  50   25   53 1
  51   25   54 1
  52   26   31 1
  53   27   28 1
  54   27   36 2
  55   29   30 1
  56   29   55 1
  57   30   31 1
  58   30   37 1
  59   30   56 1
  60   33   34 1
  61   33   57 1
  62   33   58 1
  63   34   35 1
  64   35   59 1
  65   35   60 1
  66   36   61 1
  67   37   38 1
  68   37   62 1
  69   37   63 1
  70   38   64 1

#	End of record

