#	Name: ASD01028533
#	Creating user name:	WinNT
#	Creation time:	15. 06. 2019 18:57

#	Modifying user name:	WinNT
#	Modification time:	15. 06. 2019 18:57

#	Program:	/corina/corina34_cracker 3.40 0067  02.08.2006

@<TRIPOS>MOLECULE
ASD01028533
  41   45    0    0    0
SMALL
NO_CHARGES


@<TRIPOS>ATOM
   1 N1            -0.0169     1.3921     0.0097 N.2     
   2 N2             0.0021    -0.0041     0.0020 N.pl3   
   3 C3             1.1071     2.0741     0.0026 C.2     
   4 C4             2.3532     1.4124    -0.0128 C.2     
   5 C5             2.4037     0.0542    -0.0211 C.2     
   6 C6             1.2008    -0.6771    -0.0130 C.2     
   7 N7             0.9145    -1.9687    -0.0179 N.2     
   8 N8            -0.3638    -2.1208    -0.0061 N.2     
   9 C9            -0.9586    -0.9539     0.0061 C.2     
  10 C10           -2.4463    -0.7141     0.0225 C.3     
  11 C11            1.0646     3.5571     0.0105 C.ar    
  12 C12           -2.9278    -0.6422     1.4487 C.ar    
  13 C13           -2.9540     0.5592     2.0892 C.ar    
  14 C14           -3.3457    -1.8048     2.0926 C.ar    
  15 C15           -3.7862    -1.7751     3.3801 C.ar    
  16 C16           -3.8226    -0.5548     4.0767 C.ar    
  17 C17           -3.4023     0.6273     3.4179 C.ar    
  18 N18           -4.2499    -0.4949     5.3421 N.ar    
  19 C19           -4.2854     0.6404     5.9963 C.ar    
  20 C20           -3.8819     1.8379     5.4093 C.ar    
  21 C21           -3.4395     1.8486     4.1172 C.ar    
  22 C22           -0.1602     4.2210     0.0253 C.ar    
  23 C23           -0.1950     5.6031     0.0331 C.ar    
  24 C24            0.9854     6.3277     0.0262 C.ar    
  25 C25            2.2053     5.6719     0.0115 C.ar    
  26 C26            2.2496     4.2900     0.0089 C.ar    
  27 F27           -1.3821     6.2479     0.0470 F       
  28 F28            3.3536     6.3836     0.0043 F       
  29 H29            3.2683     1.9860    -0.0185 H       
  30 H30            3.3547    -0.4576    -0.0336 H       
  31 H31           -2.6685     0.2252    -0.4838 H       
  32 H32           -2.9518    -1.5321    -0.4909 H       
  33 H33           -2.6314     1.4543     1.5783 H       
  34 H34           -3.3199    -2.7448     1.5615 H       
  35 H35           -4.1070    -2.6855     3.8644 H       
  36 H36           -4.6371     0.6479     7.0174 H       
  37 H37           -3.9231     2.7576     5.9741 H       
  38 H38           -3.1226     2.7675     3.6466 H       
  39 H39           -1.0811     3.6569     0.0303 H       
  40 H40            0.9546     7.4072     0.0319 H       
  41 H41            3.2012     3.7795    -0.0025 H       
@<TRIPOS>BOND
   1    1    2 1
   2    1    3 2
   3    2    6 1
   4    2    9 1
   5    3    4 1
   6    3   11 1
   7    4    5 2
   8    4   29 1
   9    5    6 1
  10    5   30 1
  11    6    7 2
  12    7    8 1
  13    8    9 2
  14    9   10 1
  15   10   12 1
  16   10   31 1
  17   10   32 1
  18   11   22 ar
  19   11   26 ar
  20   12   13 ar
  21   12   14 ar
  22   13   17 ar
  23   13   33 1
  24   14   15 ar
  25   14   34 1
  26   15   16 ar
  27   15   35 1
  28   16   17 ar
  29   16   18 ar
  30   17   21 ar
  31   18   19 ar
  32   19   20 ar
  33   19   36 1
  34   20   21 ar
  35   20   37 1
  36   21   38 1
  37   22   23 ar
  38   22   39 1
  39   23   24 ar
  40   23   27 1
  41   24   25 ar
  42   24   40 1
  43   25   26 ar
  44   25   28 1
  45   26   41 1

#	End of record

