#	Name: ASD01870321
#	Creating user name:	WinNT
#	Creation time:	15. 06. 2019 19:39

#	Modifying user name:	WinNT
#	Modification time:	15. 06. 2019 19:39

#	Program:	/corina/corina34_cracker 3.40 0067  02.08.2006

@<TRIPOS>MOLECULE
ASD01870321
  26   28    0    0    0
SMALL
NO_CHARGES


@<TRIPOS>ATOM
   1 C1            -0.0162     1.3436     0.0094 C.2     
   2 N2             0.0021    -0.0041     0.0020 N.am    
   3 O3             1.0291     1.9662     0.0028 O.2     
   4 C4             1.2111    -0.6803    -0.0132 C.2     
   5 O5             1.3625    -2.0138    -0.0218 O.3     
   6 C6             2.6868    -2.2774    -0.0358 C.2     
   7 C7             3.3274    -1.0986    -0.0356 C.2     
   8 N8             2.3973    -0.1252    -0.0272 N.2     
   9 C9            -1.2978     2.0605     0.0194 C.2     
  10 C10           -2.5439     1.5055     0.0228 C.2     
  11 N11           -3.4812     2.4836     0.0328 N.pl3   
  12 C12           -2.8809     3.7259     0.0365 C.ar    
  13 C13           -1.4915     3.5222     0.0342 C.ar    
  14 C14           -0.6258     4.6126     0.0427 C.ar    
  15 C15           -1.1395     5.8912     0.0566 C.ar    
  16 C16           -2.5116     6.0942     0.0623 C.ar    
  17 C17           -3.3798     5.0240     0.0461 C.ar    
  18 H18           -0.8313    -0.5005     0.0073 H       
  19 H19            3.1450    -3.2554    -0.0451 H       
  20 H20            4.3979    -0.9559    -0.0450 H       
  21 H21           -2.7520     0.4457     0.0178 H       
  22 H22           -4.4392     2.3319     0.0366 H       
  23 H23            0.4429     4.4571     0.0387 H       
  24 H24           -0.4706     6.7392     0.0636 H       
  25 H25           -2.9034     7.1006     0.0732 H       
  26 H26           -4.4465     5.1932     0.0525 H       
@<TRIPOS>BOND
   1    1    2 am
   2    1    3 2
   3    1    9 1
   4    2    4 1
   5    2   18 1
   6    4    5 1
   7    4    8 2
   8    5    6 1
   9    6    7 2
  10    6   19 1
  11    7    8 1
  12    7   20 1
  13    9   10 2
  14    9   13 1
  15   10   11 1
  16   10   21 1
  17   11   12 1
  18   11   22 1
  19   12   17 ar
  20   12   13 ar
  21   13   14 ar
  22   14   15 ar
  23   14   23 1
  24   15   16 ar
  25   15   24 1
  26   16   17 ar
  27   16   25 1
  28   17   26 1

#	End of record

