#	Name: ASD00170178
#	Creating user name:	WinNT
#	Creation time:	15. 06. 2019 18:31

#	Modifying user name:	WinNT
#	Modification time:	15. 06. 2019 18:31

#	Program:	/corina/corina34_cracker 3.40 0067  02.08.2006

@<TRIPOS>MOLECULE
ASD00170178
  33   35    0    0    0
SMALL
NO_CHARGES


@<TRIPOS>ATOM
   1 C1             0.0144     1.3185    -0.0545 C.2     
   2 C2             0.0204    -0.0181    -0.0726 C.2     
   3 C3            -1.3168    -0.5800     0.0127 C.2     
   4 C4            -2.3000     0.3732     0.0939 C.2     
   5 S5            -1.6253     1.9359     0.0610 S.3     
   6 C6             1.2608     2.1798    -0.1304 C.3     
   7 C7             2.4802     1.3110     0.1893 C.3     
   8 C8             2.4278     0.0423    -0.6671 C.3     
   9 C9             1.2885    -0.8513    -0.1709 C.3     
  10 N10           -3.6502     0.1027     0.1841 N.pl3   
  11 C11           -1.5875    -2.0172     0.0117 C.2     
  12 C12           -1.8375    -2.7219    -1.2648 C.ar    
  13 O13           -1.6071    -2.6338     1.0615 O.2     
  14 C14           -1.9785    -4.1100    -1.2828 C.ar    
  15 C15           -2.2122    -4.7614    -2.4776 C.ar    
  16 C16           -2.3064    -4.0401    -3.6553 C.ar    
  17 C17           -2.1673    -2.6635    -3.6433 C.ar    
  18 C18           -1.9389    -2.0004    -2.4555 C.ar    
  19 Br19          -2.4031    -6.6426    -2.5052 Br      
  20 H20            1.3592     2.5924    -1.1345 H       
  21 H21            1.1894     2.9905     0.5947 H       
  22 H22            3.3916     1.8651    -0.0351 H       
  23 H23            2.4676     1.0393     1.2448 H       
  24 H24            2.2523     0.3126    -1.7084 H       
  25 H25            3.3735    -0.4932    -0.5832 H       
  26 H26            1.5400    -1.2526     0.8109 H       
  27 H27            1.1336    -1.6699    -0.8737 H       
  28 H28           -3.9671    -0.8116     0.1179 H       
  29 H29           -4.2823     0.8270     0.3137 H       
  30 H30           -1.9048    -4.6735    -0.3645 H       
  31 H31           -2.4889    -4.5540    -4.5875 H       
  32 H32           -2.2415    -2.1065    -4.5656 H       
  33 H33           -1.8310    -0.9258    -2.4479 H       
@<TRIPOS>BOND
   1    1    2 2
   2    1    6 1
   3    1    5 1
   4    2    3 1
   5    2    9 1
   6    3    4 2
   7    3   11 1
   8    4    5 1
   9    4   10 1
  10    6    7 1
  11    6   20 1
  12    6   21 1
  13    7    8 1
  14    7   22 1
  15    7   23 1
  16    8    9 1
  17    8   24 1
  18    8   25 1
  19    9   26 1
  20    9   27 1
  21   10   28 1
  22   10   29 1
  23   11   12 1
  24   11   13 2
  25   12   14 ar
  26   12   18 ar
  27   14   15 ar
  28   14   30 1
  29   15   16 ar
  30   15   19 1
  31   16   17 ar
  32   16   31 1
  33   17   18 ar
  34   17   32 1
  35   18   33 1

#	End of record

