#	Name: ASD01140640
#	Creating user name:	WinNT
#	Creation time:	15. 06. 2019 19:01

#	Modifying user name:	WinNT
#	Modification time:	15. 06. 2019 19:01

#	Program:	/corina/corina34_cracker 3.40 0067  02.08.2006

@<TRIPOS>MOLECULE
ASD01140640
  39   42    0    0    0
SMALL
NO_CHARGES


@<TRIPOS>ATOM
   1 C1            -0.0006     1.3395    -0.1885 C.2     
   2 C2             0.0225    -0.0191    -0.1308 C.2     
   3 C3             1.2494    -0.6890     0.0219 C.2     
   4 C4             2.4012     0.0118     0.1111 C.2     
   5 C5             1.2095     2.0567    -0.0940 C.2     
   6 N6             1.4768     3.3546    -0.1200 N.2     
   7 N7             2.3907     1.3771     0.0548 N.pl3   
   8 C8             3.3886     2.3088     0.1190 C.2     
   9 C9             2.8009     3.5330     0.0078 C.2     
  10 C10            3.5042     4.8397     0.0255 C.ar    
  11 C11            4.7012     4.9982    -0.6702 C.ar    
  12 C12            5.3529     6.2145    -0.6517 C.ar    
  13 C13            4.8195     7.2781     0.0570 C.ar    
  14 C14            3.6282     7.1259     0.7514 C.ar    
  15 C15            2.9666     5.9126     0.7331 C.ar    
  16 C16            4.8614     2.0338     0.2807 C.3     
  17 N17            5.4532     1.7560    -1.0304 N.am    
  18 C18            6.7686     1.4806    -1.1312 C.2     
  19 C19            7.3774     1.1948    -2.4799 C.3     
  20 O20            7.4625     1.4627    -0.1367 O.2     
  21 F21            1.2765    -2.0385     0.0801 F       
  22 F22            5.4612     8.4668     0.0726 F       
  23 C23            8.8757     0.8892    -2.5282 C.3     
  24 F24            3.1114     8.1660     1.4415 F       
  25 C25            7.8587    -0.2322    -2.7496 C.3     
  26 H26           -0.9369     1.8639    -0.3100 H       
  27 H27           -0.8972    -0.5808    -0.2016 H       
  28 H28            3.3385    -0.5118     0.2282 H       
  29 H29            5.1187     4.1697    -1.2231 H       
  30 H30            6.2807     6.3371    -1.1907 H       
  31 H31            2.0367     5.7953     1.2696 H       
  32 H32            5.3473     2.9043     0.7215 H       
  33 H33            5.0005     1.1712     0.9323 H       
  34 H34            4.8982     1.7703    -1.8258 H       
  35 H35            6.9494     1.7484    -3.3157 H       
  36 H36            9.4335     1.2414    -3.3959 H       
  37 H37            9.4212     0.8948    -1.5845 H       
  38 H38            7.7351    -0.9643    -1.9516 H       
  39 H39            7.7474    -0.6178    -3.7630 H       
@<TRIPOS>BOND
   1    1    2 2
   2    1    5 1
   3    1   26 1
   4    2    3 1
   5    2   27 1
   6    3    4 2
   7    3   21 1
   8    4    7 1
   9    4   28 1
  10    5    7 1
  11    5    6 2
  12    6    9 1
  13    7    8 1
  14    8    9 2
  15    8   16 1
  16    9   10 1
  17   10   11 ar
  18   10   15 ar
  19   11   12 ar
  20   11   29 1
  21   12   13 ar
  22   12   30 1
  23   13   14 ar
  24   13   22 1
  25   14   15 ar
  26   14   24 1
  27   15   31 1
  28   16   17 1
  29   16   32 1
  30   16   33 1
  31   17   18 am
  32   17   34 1
  33   18   19 1
  34   18   20 2
  35   19   23 1
  36   19   25 1
  37   19   35 1
  38   23   25 1
  39   23   36 1
  40   23   37 1
  41   25   38 1
  42   25   39 1

#	End of record

