#	Name: ASD07930492
#	Creating user name:	WinNT
#	Creation time:	15. 06. 2019 21:12

#	Modifying user name:	WinNT
#	Modification time:	15. 06. 2019 21:12

#	Program:	/corina/corina34_cracker 3.40 0067  02.08.2006

@<TRIPOS>MOLECULE
ASD07930492
  43   45    0    0    0
SMALL
NO_CHARGES


@<TRIPOS>ATOM
   1 C1            -0.0342     1.4581     0.0424 C.3     
   2 N2             0.7953    -0.4134    -2.1302 N.2     
   3 N3            -0.8904    -1.7835    -1.2685 N.pl3   
   4 C4            -0.9149    -2.8271    -0.2383 C.3     
   5 C5            -1.2300    -2.1885     1.1215 C.3     
   6 S6             0.0062    -0.8914     1.4434 S.o2    
   7 N7            -0.0140    -0.0067     0.0315 N.am    
   8 C8            -0.0112    -0.7260    -1.1552 C.2     
   9 C9             0.4501    -3.5154    -0.1755 C.3     
  10 C10           -1.9764    -3.8423    -0.5755 C.ar    
  11 C11           -2.8068    -3.6381    -1.6597 C.ar    
  12 C12           -3.7850    -4.5740    -1.9701 C.ar    
  13 C13           -3.9256    -5.7133    -1.1890 C.ar    
  14 C14           -3.0929    -5.9137    -0.1053 C.ar    
  15 C15           -2.1147    -4.9821     0.1989 C.ar    
  16 N16           -4.6279    -4.3688    -3.0682 N.am    
  17 C17           -5.0478    -5.4191    -3.8010 C.2     
  18 O18           -4.6179    -6.5341    -3.5687 O.2     
  19 O19           -0.4575     0.0117     2.4377 O.2     
  20 O20            1.3141    -1.4441     1.5003 O.2     
  21 F21           -1.3013    -5.1800     1.2593 F       
  22 C22           -6.0214    -5.2192    -4.8764 C.2     
  23 C23           -6.5217    -6.2009    -5.6857 C.2     
  24 C24           -7.4217    -5.7347    -6.6134 C.2     
  25 C25           -7.6525    -4.4154    -6.5676 C.2     
  26 S26           -6.7394    -3.6792    -5.3286 S.3     
  27 Cl27          -8.7410    -3.5697    -7.6230 Cl      
  28 H28            0.9883     1.8356     0.0393 H       
  29 H29           -0.5581     1.8208    -0.8420 H       
  30 H30           -0.5479     1.8077     0.9379 H       
  31 H31            1.4071     0.3331    -2.0332 H       
  32 H32           -1.4883    -1.8387    -2.0303 H       
  33 H33           -2.2269    -1.7484     1.0987 H       
  34 H34           -1.1799    -2.9460     1.9037 H       
  35 H35            1.2166    -2.7805     0.0704 H       
  36 H36            0.4311    -4.2908     0.5903 H       
  37 H37            0.6749    -3.9652    -1.1426 H       
  38 H38           -2.6960    -2.7510    -2.2658 H       
  39 H39           -4.6858    -6.4422    -1.4284 H       
  40 H40           -3.2019    -6.7997     0.5025 H       
  41 H41           -4.9099    -3.4706    -3.3020 H       
  42 H42           -6.2375    -7.2397    -5.6041 H       
  43 H43           -7.9071    -6.3837    -7.3272 H       
@<TRIPOS>BOND
   1    1    7 1
   2    1   28 1
   3    1   29 1
   4    1   30 1
   5    2    8 2
   6    2   31 1
   7    3    4 1
   8    3    8 1
   9    3   32 1
  10    4    5 1
  11    4    9 1
  12    4   10 1
  13    5    6 1
  14    5   33 1
  15    5   34 1
  16    6    7 am
  17    6   19 2
  18    6   20 2
  19    7    8 1
  20    9   35 1
  21    9   36 1
  22    9   37 1
  23   10   11 ar
  24   10   15 ar
  25   11   12 ar
  26   11   38 1
  27   12   13 ar
  28   12   16 1
  29   13   14 ar
  30   13   39 1
  31   14   15 ar
  32   14   40 1
  33   15   21 1
  34   16   17 am
  35   16   41 1
  36   17   18 2
  37   17   22 1
  38   22   23 2
  39   22   26 1
  40   23   24 1
  41   23   42 1
  42   24   25 2
  43   24   43 1
  44   25   26 1
  45   25   27 1

#	End of record

