#	Name: ASD06590016
#	Creating user name:	WinNT
#	Creation time:	15. 06. 2019 21:06

#	Modifying user name:	WinNT
#	Modification time:	15. 06. 2019 21:06

#	Program:	/corina/corina34_cracker 3.40 0067  02.08.2006

@<TRIPOS>MOLECULE
ASD06590016
 302  306    0    0    0
SMALL
NO_CHARGES


@<TRIPOS>ATOM
   1 C1            -1.9954    -2.4960     6.3383 C.2     
   2 O2            -2.0984    -3.7044     6.3466 O.2     
   3 N3             0.3664    -2.8941     6.7291 N.am    
   4 C4            -0.6478    -1.8533     6.5433 C.3     
   5 C5            -0.2936    -1.0091     5.3174 C.3     
   6 C6            -5.2820    -1.4154     5.1580 C.2     
   7 O7            -4.8627    -0.3319     4.8100 O.2     
   8 N8            -3.0851    -1.7281     6.1402 N.am    
   9 C9            -4.3941    -2.3530     5.9349 C.3     
  10 C10           -5.0338    -2.6543     7.2916 C.3     
  11 C11           -4.2092    -3.6857     8.0179 C.ar    
  12 C12           -3.1810    -3.2853     8.8510 C.ar    
  13 C13           -2.4233    -4.2288     9.5175 C.ar    
  14 C14           -2.6951    -5.5789     9.3507 C.ar    
  15 O15           -1.9515    -6.5090    10.0056 O.3     
  16 C16           -3.7277    -5.9780     8.5145 C.ar    
  17 C17           -4.4858    -5.0305     7.8543 C.ar    
  18 C18           -8.8490    -1.1821     4.3930 C.2     
  19 O19           -9.1293    -2.0780     5.1610 O.2     
  20 N20           -6.5421    -1.7810     4.8498 N.am    
  21 C21           -7.4053    -0.8695     4.0945 C.3     
  22 C22           -7.1448    -1.0439     2.5970 C.3     
  23 C23           -5.7359    -0.6141     2.2788 C.ar    
  24 C24           -4.7046    -1.5332     2.3299 C.ar    
  25 C25           -3.4122    -1.1389     2.0381 C.ar    
  26 C26           -3.1512     0.1744     1.6948 C.ar    
  27 C27           -4.1826     1.0934     1.6428 C.ar    
  28 C28           -5.4756     0.6981     1.9304 C.ar    
  29 C29          -12.0924    -0.3187     2.9444 C.2     
  30 O30          -11.5832     0.2050     1.9762 O.2     
  31 N31           -9.8287    -0.4660     3.8065 N.am    
  32 C32          -11.2322    -0.7698     4.0966 C.3     
  33 C33          -11.6599    -0.0372     5.3699 C.3     
  34 C34          -10.8725    -0.5844     6.5621 C.3     
  35 C35          -11.3003     0.1483     7.8354 C.3     
  36 N36          -10.5463    -0.3757     8.9770 N.pl3   
  37 C37          -10.7622     0.1338    10.2355 C.2     
  38 N38          -10.0914    -0.3324    11.2512 N.2     
  39 N39          -11.6857     1.1349    10.4228 N.pl3   
  40 C40          -15.6623     0.2106     2.3623 C.2     
  41 O41          -15.9337     0.0518     3.5337 O.2     
  42 N42          -13.4275    -0.4973     2.9899 N.am    
  43 C43          -14.2637    -0.0587     1.8698 C.3     
  44 C44          -14.3011    -1.1538     0.8019 C.3     
  45 C45          -12.9013    -1.3402     0.2133 C.3     
  46 C46          -12.9387    -2.4352    -0.8546 C.3     
  47 N47          -11.5983    -2.6137    -1.4182 N.pl3   
  48 C48          -11.3854    -3.5500    -2.4022 C.2     
  49 N49          -12.3761    -4.2789    -2.8335 N.2     
  50 N50          -10.1275    -3.7174    -2.9311 N.pl3   
  51 C51          -18.9435     0.7362     0.8392 C.2     
  52 O52          -18.5407     0.4376    -0.2651 O.2     
  53 N53          -16.6113     0.6279     1.5012 N.am    
  54 C54          -17.9709     0.8897     1.9800 C.3     
  55 C55          -18.0519     2.3147     2.5311 C.3     
  56 C56          -17.1575     2.4353     3.7665 C.3     
  57 C57          -17.1406     3.8889     4.2439 C.3     
  58 C58          -17.7025     1.5390     4.8803 C.3     
  59 C59          -22.4394     1.6028     0.2141 C.2     
  60 O60          -22.5204     2.2490     1.2373 O.2     
  61 N61          -20.2610     0.9309     1.0460 N.am    
  62 C62          -21.2065     0.7817    -0.0630 C.3     
  63 C63          -21.5961    -0.6909    -0.2065 C.3     
  64 C64          -20.3849    -1.4945    -0.6044 C.2     
  65 C65          -19.9020    -2.5716     0.0437 C.2     
  66 N66          -18.8002    -2.9912    -0.6517 N.pl3   
  67 C67          -18.6480    -2.1553    -1.7013 C.2     
  68 N68          -19.6023    -1.2657    -1.6694 N.2     
  69 C69          -25.8215     1.8338    -1.1539 C.2     
  70 O70          -25.6697     0.8483    -1.8443 O.2     
  71 N71          -23.4522     1.6191    -0.6751 N.am    
  72 C72          -24.6507     2.4173    -0.4057 C.3     
  73 C73          -24.4181     3.8578    -0.8657 C.3     
  74 O74          -24.2574     3.8844    -2.2854 O.3     
  75 C75          -29.2024     2.9156    -2.0269 C.2     
  76 O76          -29.0032     4.0448    -1.6318 O.2     
  77 N77          -27.0372     2.4072    -1.0560 N.am    
  78 C78          -28.1754     1.8400    -1.7834 C.3     
  79 C79          -28.8009     0.7157    -0.9553 C.3     
  80 C80          -27.7273    -0.3156    -0.6022 C.3     
  81 O81          -29.3526     1.2591     0.2457 O.3     
  82 C82          -32.6993     3.0376    -3.0852 C.2     
  83 O83          -32.8216     1.8332    -3.0119 O.2     
  84 N84          -30.3422     2.6227    -2.6839 N.am    
  85 C85          -31.3406     3.6684    -2.9206 C.3     
  86 C86          -30.9793     4.4402    -4.1913 C.3     
  87 C87          -29.6583     5.1824    -3.9790 C.3     
  88 C88          -29.2970     5.9542    -5.2497 C.3     
  89 N89          -28.0322     6.6649    -5.0465 N.pl3   
  90 C90          -27.5039     7.4311    -6.0583 C.2     
  91 N91          -28.1285     7.5253    -7.1985 N.2     
  92 N92          -26.3170     8.0981    -5.8676 N.pl3   
  93 C93          -35.2411     3.0209    -5.0812 C.2     
  94 O94          -34.3599     3.3780    -5.8341 O.2     
  95 N95          -33.7785     3.8119    -3.3138 N.am    
  96 C96          -35.0772     3.1943    -3.5933 C.3     
  97 C97          -36.1946     4.0922    -3.0583 C.3     
  98 C98          -36.1162     4.1497    -1.5544 C.2     
  99 O99          -35.2021     3.6039    -0.9735 O.2     
 100 N100         -37.0618     4.8078    -0.8550 N.am    
 101 C101         -37.9934     2.2633    -7.3647 C.2     
 102 O102         -38.8240     2.3675    -6.4871 O.2     
 103 N103         -36.3670     2.4689    -5.5754 N.am    
 104 C104         -36.5264     2.3003    -7.0219 C.3     
 105 C105         -35.8675     0.9902    -7.4583 C.3     
 106 C106         -34.3806     1.0747    -7.2282 C.ar    
 107 C107         -33.8454     0.6722    -6.0185 C.ar    
 108 C108         -32.4828     0.7491    -5.8049 C.ar    
 109 C109         -31.6510     1.2303    -6.8056 C.ar    
 110 O110         -30.3101     1.3065    -6.5981 O.3     
 111 C111         -32.1904     1.6331    -8.0186 C.ar    
 112 C112         -33.5532     1.5493    -8.2291 C.ar    
 113 C113         -40.0644     1.3550   -10.2223 C.2     
 114 O114         -39.1477     1.0554   -10.9576 O.2     
 115 N115         -38.3824     2.1144    -8.6465 N.am    
 116 C116         -39.8036     2.1883    -8.9940 C.3     
 117 C117         -40.1852     3.6432    -9.2743 C.3     
 118 C118         -41.6894     3.7341    -9.5388 C.3     
 119 C119         -42.4540     3.3872    -8.2598 C.3     
 120 C120         -39.4204     4.1437   -10.5013 C.3     
 121 C121         -41.6876     0.8397   -12.8995 C.2     
 122 O122         -41.5945     2.0439   -12.8657 O.2     
 123 N123         -41.3164     0.9428   -10.5036 N.am    
 124 C124         -41.5536     0.0376   -11.6308 C.3     
 125 C125         -42.8413    -0.7522   -11.3884 C.3     
 126 C126         -42.6635    -1.6472   -10.1890 C.2     
 127 C127         -43.4539    -1.6763    -9.0992 C.2     
 128 N128         -42.9372    -2.6266    -8.2604 N.pl3   
 129 C129         -41.8481    -3.1455    -8.8673 C.2     
 130 N130         -41.6935    -2.5585   -10.0225 N.2     
 131 O131         -41.9104     0.2164   -14.0673 O.3     
 132 C132           1.4985    -2.6185     7.4066 C.2     
 133 O133           1.6775    -1.5090     7.8624 O.2     
 134 C134          18.1850    -7.3084    14.5307 C.3     
 135 C135          17.1258    -6.2215    14.3366 C.3     
 136 C136          15.9503    -6.7913    13.5403 C.3     
 137 C137          14.8911    -5.7044    13.3462 C.3     
 138 C138          13.7155    -6.2743    12.5499 C.3     
 139 C139          12.6563    -5.1874    12.3558 C.3     
 140 C140          11.4807    -5.7572    11.5594 C.3     
 141 C141          10.4216    -4.6703    11.3654 C.3     
 142 C142           9.2460    -5.2402    10.5690 C.3     
 143 C143           8.1868    -4.1533    10.3749 C.3     
 144 C144           7.0112    -4.7232     9.5786 C.3     
 145 C145           5.9520    -3.6363     9.3845 C.3     
 146 C146           4.7765    -4.2061     8.5882 C.3     
 147 C147           3.7173    -3.1192     8.3941 C.3     
 148 C148           2.5417    -3.6891     7.5977 C.3     
 149 H149           0.2232    -3.7815     6.3645 H       
 150 H150          -0.6800    -1.2156     7.4266 H       
 151 H151           0.6811    -0.5443     5.4657 H       
 152 H152          -0.2613    -1.6469     4.4340 H       
 153 H153          -1.0482    -0.2348     5.1792 H       
 154 H154          -3.0026    -0.7616     6.1335 H       
 155 H155          -4.2701    -3.2814     5.3774 H       
 156 H156          -5.0766    -1.7404     7.8841 H       
 157 H157          -6.0432    -3.0369     7.1405 H       
 158 H158          -2.9697    -2.2341     8.9806 H       
 159 H159          -1.6198    -3.9156    10.1676 H       
 160 H160          -2.2990    -6.7489    10.8755 H       
 161 H161          -3.9411    -7.0285     8.3827 H       
 162 H162          -5.2925    -5.3405     7.2067 H       
 163 H163          -6.8775    -2.6476     5.1281 H       
 164 H164          -7.1889     0.1589     4.3836 H       
 165 H165          -7.2752    -2.0914     2.3251 H       
 166 H166          -7.8478    -0.4317     2.0322 H       
 167 H167          -4.9086    -2.5593     2.5981 H       
 168 H168          -2.6064    -1.8568     2.0787 H       
 169 H169          -2.1413     0.4827     1.4675 H       
 170 H170          -3.9785     2.1195     1.3749 H       
 171 H171          -6.2820     1.4152     1.8863 H       
 172 H172          -9.6045     0.2505     3.1923 H       
 173 H173         -11.3495    -1.8442     4.2388 H       
 174 H174         -11.4596     1.0286     5.2605 H       
 175 H175         -12.7260    -0.1912     5.5370 H       
 176 H176         -11.0728    -1.6502     6.6715 H       
 177 H177          -9.8065    -0.4303     6.3950 H       
 178 H178         -11.0999     1.2141     7.7260 H       
 179 H179         -12.3663    -0.0058     8.0025 H       
 180 H180          -9.8947    -1.0820     8.8449 H       
 181 H181         -10.2437     0.0271    12.1392 H       
 182 H182         -12.1849     1.4818     9.6669 H       
 183 H183         -11.8381     1.4943    11.3108 H       
 184 H184         -13.8347    -0.9162     3.7642 H       
 185 H185         -13.8477     0.8529     1.4409 H       
 186 H186         -14.6334    -2.0892     1.2522 H       
 187 H187         -14.9928    -0.8658     0.0103 H       
 188 H188         -12.5690    -0.4048    -0.2370 H       
 189 H189         -12.2096    -1.6281     1.0049 H       
 190 H190         -13.2709    -3.3706    -0.4043 H       
 191 H191         -13.6304    -2.1472    -1.6463 H       
 192 H192         -10.8610    -2.0712    -1.0972 H       
 193 H193         -12.2258    -4.9395    -3.5277 H       
 194 H194          -9.3902    -3.1749    -2.6101 H       
 195 H195          -9.9772    -4.3780    -3.6253 H       
 196 H196         -16.3942     0.7548     0.5643 H       
 197 H197         -18.2212     0.1803     2.7688 H       
 198 H198         -17.7163     3.0185     1.7694 H       
 199 H199         -19.0825     2.5401     2.8053 H       
 200 H200         -16.1440     2.1244     3.5131 H       
 201 H201         -18.1540     4.1998     4.4974 H       
 202 H202         -16.5033     3.9748     5.1241 H       
 203 H203         -16.7523     4.5274     3.4505 H       
 204 H204         -18.7160     1.8500     5.1337 H       
 205 H205         -17.7145     0.5035     4.5402 H       
 206 H206         -17.0652     1.6250     5.7604 H       
 207 H207         -20.5832     1.1698     1.9292 H       
 208 H208         -20.7407     1.1259    -0.9864 H       
 209 H209         -21.9802    -1.0594     0.7447 H       
 210 H210         -22.3656    -0.7902    -0.9721 H       
 211 H211         -20.3062    -3.0184     0.9401 H       
 212 H212         -18.2344    -3.7478    -0.4316 H       
 213 H213         -17.8682    -2.2155    -2.4460 H       
 214 H214         -23.3874     1.1023    -1.4934 H       
 215 H215         -24.8614     2.4069     0.6637 H       
 216 H216         -25.2743     4.4714    -0.5854 H       
 217 H217         -23.5189     4.2502    -0.3908 H       
 218 H218         -24.1059     4.7681    -2.6476 H       
 219 H219         -27.1587     3.1954    -0.5038 H       
 220 H220         -27.8338     1.4409    -2.7385 H       
 221 H221         -29.5904     0.2351    -1.5329 H       
 222 H222         -26.9377     0.1651    -0.0246 H       
 223 H223         -28.1729    -1.1165    -0.0123 H       
 224 H224         -27.3064    -0.7301    -1.5183 H       
 225 H225         -28.7052     1.7031     0.8103 H       
 226 H226         -30.5015     1.7196    -2.9999 H       
 227 H227         -31.3580     4.3528    -2.0724 H       
 228 H228         -30.8747     3.7429    -5.0226 H       
 229 H229         -31.7675     5.1585    -4.4166 H       
 230 H230         -29.7629     5.8797    -3.1478 H       
 231 H231         -28.8701     4.4641    -3.7537 H       
 232 H232         -29.1925     5.2569    -6.0810 H       
 233 H233         -30.0853     6.6725    -5.4750 H       
 234 H234         -27.5674     6.5948    -4.1979 H       
 235 H235         -27.7558     8.0660    -7.9125 H       
 236 H236         -25.8522     8.0280    -5.0191 H       
 237 H237         -25.9442     8.6387    -6.5815 H       
 238 H238         -33.6953     4.7781    -3.2932 H       
 239 H239         -35.1288     2.2206    -3.1061 H       
 240 H240         -36.0808     5.0963    -3.4668 H       
 241 H241         -37.1612     3.6860    -3.3564 H       
 242 H242         -37.7929     5.2444    -1.3196 H       
 243 H243         -37.0113     4.8449     0.1129 H       
 244 H244         -37.0718     2.1833    -4.9732 H       
 245 H245         -36.0533     3.1349    -7.5393 H       
 246 H246         -36.2789     0.1652    -6.8766 H       
 247 H247         -36.0622     0.8207    -8.5172 H       
 248 H248         -34.4933     0.2977    -5.2397 H       
 249 H249         -32.0653     0.4353    -4.8596 H       
 250 H250         -29.8267     0.5087    -6.8530 H       
 251 H251         -31.5451     2.0083    -8.7991 H       
 252 H252         -33.9731     1.8586    -9.1748 H       
 253 H253         -37.7213     1.9583    -9.3389 H       
 254 H254         -40.4007     1.8095    -8.1644 H       
 255 H255         -39.9301     4.2584    -8.4114 H       
 256 H256         -41.9429     4.7475    -9.8502 H       
 257 H257         -41.9627     3.0327   -10.3271 H       
 258 H258         -42.2738     2.3440    -8.0004 H       
 259 H259         -42.1121     4.0280    -7.4470 H       
 260 H260         -43.5208     3.5426    -8.4207 H       
 261 H261         -39.6131     3.4808   -11.3449 H       
 262 H262         -39.7510     5.1524   -10.7490 H       
 263 H263         -38.3523     4.1544   -10.2843 H       
 264 H264         -42.0603     1.2454    -9.9597 H       
 265 H265         -40.7158    -0.6533   -11.7245 H       
 266 H266         -43.6634    -0.0600   -11.2064 H       
 267 H267         -43.0654    -1.3599   -12.2651 H       
 268 H268         -44.3275    -1.0668    -8.9210 H       
 269 H269         -43.2877    -2.8800    -7.3922 H       
 270 H270         -41.2128    -3.9207    -8.4651 H       
 271 H271         -41.9891     0.7731   -14.8540 H       
 272 H272          18.5372    -7.6504    13.5575 H       
 273 H273          19.0225    -6.9024    15.0980 H       
 274 H274          17.7499    -8.1467    15.0748 H       
 275 H275          16.7737    -5.8794    15.3098 H       
 276 H276          17.5609    -5.3832    13.7925 H       
 277 H277          16.3024    -7.1333    12.5671 H       
 278 H278          15.5152    -7.6296    14.0844 H       
 279 H279          14.5389    -5.3624    14.3194 H       
 280 H280          15.3262    -4.8661    12.8021 H       
 281 H281          14.0677    -6.6163    11.5767 H       
 282 H282          13.2804    -7.1126    13.0940 H       
 283 H283          12.3041    -4.8454    13.3290 H       
 284 H284          13.0914    -4.3491    11.8117 H       
 285 H285          11.8329    -6.0993    10.5862 H       
 286 H286          11.0457    -6.5955    12.1035 H       
 287 H287          10.0694    -4.3283    12.3386 H       
 288 H288          10.8566    -3.8320    10.8213 H       
 289 H289           9.5982    -5.5822     9.5958 H       
 290 H290           8.8109    -6.0785    11.1131 H       
 291 H291           7.8346    -3.8113    11.3481 H       
 292 H292           8.6219    -3.3150     9.8308 H       
 293 H293           7.3634    -5.0652     8.6054 H       
 294 H294           6.5761    -5.5615    10.1227 H       
 295 H295           5.5999    -3.2942    10.3577 H       
 296 H296           6.3871    -2.7980     8.8404 H       
 297 H297           5.1287    -4.5482     7.6150 H       
 298 H298           4.3414    -5.0444     9.1323 H       
 299 H299           3.3651    -2.7772     9.3673 H       
 300 H300           4.1524    -2.2809     7.8500 H       
 301 H301           2.1066    -4.5274     8.1419 H       
 302 H302           2.8939    -4.0311     6.6246 H       
@<TRIPOS>BOND
   1    1    2 2
   2    1    4 1
   3    1    8 am
   4    3  132 am
   5    3    4 1
   6    3  149 1
   7    4    5 1
   8    4  150 1
   9    5  151 1
  10    5  152 1
  11    5  153 1
  12    6    7 2
  13    6    9 1
  14    6   20 am
  15    8    9 1
  16    8  154 1
  17    9   10 1
  18    9  155 1
  19   10   11 1
  20   10  156 1
  21   10  157 1
  22   11   12 ar
  23   11   17 ar
  24   12   13 ar
  25   12  158 1
  26   13   14 ar
  27   13  159 1
  28   14   15 1
  29   14   16 ar
  30   15  160 1
  31   16   17 ar
  32   16  161 1
  33   17  162 1
  34   18   19 2
  35   18   21 1
  36   18   31 am
  37   20   21 1
  38   20  163 1
  39   21   22 1
  40   21  164 1
  41   22   23 1
  42   22  165 1
  43   22  166 1
  44   23   24 ar
  45   23   28 ar
  46   24   25 ar
  47   24  167 1
  48   25   26 ar
  49   25  168 1
  50   26   27 ar
  51   26  169 1
  52   27   28 ar
  53   27  170 1
  54   28  171 1
  55   29   30 2
  56   29   32 1
  57   29   42 am
  58   31   32 1
  59   31  172 1
  60   32   33 1
  61   32  173 1
  62   33   34 1
  63   33  174 1
  64   33  175 1
  65   34   35 1
  66   34  176 1
  67   34  177 1
  68   35   36 1
  69   35  178 1
  70   35  179 1
  71   36   37 1
  72   36  180 1
  73   37   38 2
  74   37   39 1
  75   38  181 1
  76   39  182 1
  77   39  183 1
  78   40   41 2
  79   40   43 1
  80   40   53 am
  81   42   43 1
  82   42  184 1
  83   43   44 1
  84   43  185 1
  85   44   45 1
  86   44  186 1
  87   44  187 1
  88   45   46 1
  89   45  188 1
  90   45  189 1
  91   46   47 1
  92   46  190 1
  93   46  191 1
  94   47   48 1
  95   47  192 1
  96   48   49 2
  97   48   50 1
  98   49  193 1
  99   50  194 1
 100   50  195 1
 101   51   52 2
 102   51   54 1
 103   51   61 am
 104   53   54 1
 105   53  196 1
 106   54   55 1
 107   54  197 1
 108   55   56 1
 109   55  198 1
 110   55  199 1
 111   56   57 1
 112   56   58 1
 113   56  200 1
 114   57  201 1
 115   57  202 1
 116   57  203 1
 117   58  204 1
 118   58  205 1
 119   58  206 1
 120   59   60 2
 121   59   62 1
 122   59   71 am
 123   61   62 1
 124   61  207 1
 125   62   63 1
 126   62  208 1
 127   63   64 1
 128   63  209 1
 129   63  210 1
 130   64   65 2
 131   64   68 1
 132   65   66 1
 133   65  211 1
 134   66   67 1
 135   66  212 1
 136   67   68 2
 137   67  213 1
 138   69   70 2
 139   69   72 1
 140   69   77 am
 141   71   72 1
 142   71  214 1
 143   72   73 1
 144   72  215 1
 145   73   74 1
 146   73  216 1
 147   73  217 1
 148   74  218 1
 149   75   76 2
 150   75   78 1
 151   75   84 am
 152   77   78 1
 153   77  219 1
 154   78   79 1
 155   78  220 1
 156   79   80 1
 157   79   81 1
 158   79  221 1
 159   80  222 1
 160   80  223 1
 161   80  224 1
 162   81  225 1
 163   82   83 2
 164   82   85 1
 165   82   95 am
 166   84   85 1
 167   84  226 1
 168   85   86 1
 169   85  227 1
 170   86   87 1
 171   86  228 1
 172   86  229 1
 173   87   88 1
 174   87  230 1
 175   87  231 1
 176   88   89 1
 177   88  232 1
 178   88  233 1
 179   89   90 1
 180   89  234 1
 181   90   91 2
 182   90   92 1
 183   91  235 1
 184   92  236 1
 185   92  237 1
 186   93   94 2
 187   93   96 1
 188   93  103 am
 189   95   96 1
 190   95  238 1
 191   96   97 1
 192   96  239 1
 193   97   98 1
 194   97  240 1
 195   97  241 1
 196   98   99 2
 197   98  100 am
 198  100  242 1
 199  100  243 1
 200  101  102 2
 201  101  104 1
 202  101  115 am
 203  103  104 1
 204  103  244 1
 205  104  105 1
 206  104  245 1
 207  105  106 1
 208  105  246 1
 209  105  247 1
 210  106  107 ar
 211  106  112 ar
 212  107  108 ar
 213  107  248 1
 214  108  109 ar
 215  108  249 1
 216  109  110 1
 217  109  111 ar
 218  110  250 1
 219  111  112 ar
 220  111  251 1
 221  112  252 1
 222  113  114 2
 223  113  116 1
 224  113  123 am
 225  115  116 1
 226  115  253 1
 227  116  117 1
 228  116  254 1
 229  117  118 1
 230  117  120 1
 231  117  255 1
 232  118  119 1
 233  118  256 1
 234  118  257 1
 235  119  258 1
 236  119  259 1
 237  119  260 1
 238  120  261 1
 239  120  262 1
 240  120  263 1
 241  121  122 2
 242  121  124 1
 243  121  131 1
 244  123  124 1
 245  123  264 1
 246  124  125 1
 247  124  265 1
 248  125  126 1
 249  125  266 1
 250  125  267 1
 251  126  127 2
 252  126  130 1
 253  127  128 1
 254  127  268 1
 255  128  129 1
 256  128  269 1
 257  129  130 2
 258  129  270 1
 259  131  271 1
 260  132  133 2
 261  132  148 1
 262  134  135 1
 263  134  272 1
 264  134  273 1
 265  134  274 1
 266  135  136 1
 267  135  275 1
 268  135  276 1
 269  136  137 1
 270  136  277 1
 271  136  278 1
 272  137  138 1
 273  137  279 1
 274  137  280 1
 275  138  139 1
 276  138  281 1
 277  138  282 1
 278  139  140 1
 279  139  283 1
 280  139  284 1
 281  140  141 1
 282  140  285 1
 283  140  286 1
 284  141  142 1
 285  141  287 1
 286  141  288 1
 287  142  143 1
 288  142  289 1
 289  142  290 1
 290  143  144 1
 291  143  291 1
 292  143  292 1
 293  144  145 1
 294  144  293 1
 295  144  294 1
 296  145  146 1
 297  145  295 1
 298  145  296 1
 299  146  147 1
 300  146  297 1
 301  146  298 1
 302  147  148 1
 303  147  299 1
 304  147  300 1
 305  148  301 1
 306  148  302 1

#	End of record

