#	Name: ASD01914455
#	Creating user name:	WinNT
#	Creation time:	15. 06. 2019 20:03

#	Modifying user name:	WinNT
#	Modification time:	15. 06. 2019 20:03

#	Program:	/corina/corina34_cracker 3.40 0067  02.08.2006

@<TRIPOS>MOLECULE
ASD01914455
  43   46    0    0    0
SMALL
NO_CHARGES


@<TRIPOS>ATOM
   1 C1            -0.0158     1.3116     0.0093 C.ar    
   2 N2             0.0021    -0.0041     0.0020 N.ar    
   3 C3             1.1550    -0.6685    -0.0125 C.ar    
   4 C4             2.3492     0.0531    -0.0200 C.ar    
   5 C5             2.2795     1.4390    -0.0119 C.ar    
   6 N6             1.0941     2.0240     0.0025 N.ar    
   7 C7             1.1703    -2.1530    -0.0202 C.2     
   8 O8             2.2285    -2.7494    -0.0335 O.2     
   9 N9             0.0102    -2.8389    -0.0124 N.am    
  10 C10            0.0253    -4.3038    -0.0199 C.3     
  11 C11           -1.4118    -4.8288    -0.0086 C.3     
  12 C12           -1.3959    -6.3587    -0.0164 C.3     
  13 C13           -0.6574    -6.8675     1.2231 C.3     
  14 C14            0.7797    -6.3425     1.2118 C.3     
  15 C15            1.4940    -6.8387    -0.0469 C.3     
  16 C16            0.7554    -6.3299    -1.2865 C.3     
  17 C17            0.7396    -4.8000    -1.2786 C.3     
  18 C18           -0.6816    -6.8549    -1.2752 C.3     
  19 C19            0.7639    -4.8126     1.2197 C.3     
  20 N20           -2.7757    -6.8627    -0.0056 N.3     
  21 C21           -1.3431     2.0252     0.0193 C.3     
  22 H22            3.3028    -0.4537    -0.0315 H       
  23 H23            3.1821     2.0320    -0.0170 H       
  24 H24           -0.8348    -2.3627    -0.0017 H       
  25 H25           -1.9206    -4.4753     0.8882 H       
  26 H26           -1.9379    -4.4663    -0.8917 H       
  27 H27           -1.1662    -6.5140     2.1199 H       
  28 H28           -0.6461    -7.9574     1.2175 H       
  29 H29            1.3059    -6.7050     2.0949 H       
  30 H30            2.5178    -6.4647    -0.0550 H       
  31 H31            1.5053    -7.9286    -0.0525 H       
  32 H32            1.2643    -6.6834    -2.1833 H       
  33 H33            0.2134    -4.4376    -2.1617 H       
  34 H34            1.7634    -4.4261    -1.2867 H       
  35 H35           -0.6704    -7.9448    -1.2808 H       
  36 H36           -1.2078    -6.4924    -2.1583 H       
  37 H37            1.7877    -4.4386     1.2116 H       
  38 H38            0.2550    -4.4591     2.1165 H       
  39 H39           -2.7922    -7.8716    -0.0105 H       
  40 H40           -3.2883    -6.4965     0.7827 H       
  41 H41           -1.6583     2.1916     1.0494 H       
  42 H42           -1.2441     2.9839    -0.4898 H       
  43 H43           -2.0869     1.4162    -0.4943 H       
@<TRIPOS>BOND
   1    1    2 ar
   2    1    6 ar
   3    1   21 1
   4    2    3 ar
   5    3    4 ar
   6    3    7 1
   7    4    5 ar
   8    4   22 1
   9    5    6 ar
  10    5   23 1
  11    7    8 2
  12    7    9 am
  13    9   10 1
  14    9   24 1
  15   10   11 1
  16   10   17 1
  17   10   19 1
  18   11   12 1
  19   11   25 1
  20   11   26 1
  21   12   13 1
  22   12   18 1
  23   12   20 1
  24   13   14 1
  25   13   27 1
  26   13   28 1
  27   14   15 1
  28   14   19 1
  29   14   29 1
  30   15   16 1
  31   15   30 1
  32   15   31 1
  33   16   17 1
  34   16   18 1
  35   16   32 1
  36   17   33 1
  37   17   34 1
  38   18   35 1
  39   18   36 1
  40   19   37 1
  41   19   38 1
  42   20   39 1
  43   20   40 1
  44   21   41 1
  45   21   42 1
  46   21   43 1

#	End of record

