#	Name: ASD01913117
#	Creating user name:	WinNT
#	Creation time:	15. 06. 2019 20:01

#	Modifying user name:	WinNT
#	Modification time:	15. 06. 2019 20:01

#	Program:	/corina/corina34_cracker 3.40 0067  02.08.2006

@<TRIPOS>MOLECULE
ASD01913117
  42   45    0    0    0
SMALL
NO_CHARGES


@<TRIPOS>ATOM
   1 C1             0.3125     0.5337    -0.2071 C.2     
   2 C2             0.4682    -0.8188    -0.1640 C.2     
   3 C3            -0.8162    -1.3909    -0.1884 C.2     
   4 C4            -1.7132    -0.3822    -0.2451 C.2     
   5 N5            -1.0306     0.8030    -0.2518 N.pl3   
   6 C6             1.4011     1.5356    -0.2003 C.2     
   7 N7             2.7338     1.2775    -0.1502 N.2     
   8 C8             3.3756     2.4092    -0.1619 C.2     
   9 O9             2.4927     3.4150    -0.2188 O.3     
  10 C10            1.2548     2.8843    -0.2489 C.2     
  11 F11           -1.1017    -2.7111    -0.1605 F       
  12 C12            4.8740     2.5639    -0.1182 C.3     
  13 C13            5.3485     3.2980    -1.3744 C.3     
  14 C14            6.8733     3.4266    -1.3468 C.3     
  15 C15            7.2905     4.2459    -0.1215 C.3     
  16 N16            6.7153     3.6260     1.0801 N.am    
  17 C17            5.2685     3.3734     1.1211 C.3     
  18 C18            7.5000     3.2953     2.1247 C.2     
  19 C19            6.8932     2.7937     3.3747 C.ar    
  20 O20            8.7072     3.4097     2.0384 O.2     
  21 C21            7.4765     1.7344     4.0704 C.ar    
  22 N22            6.9366     1.2862     5.1848 N.ar    
  23 C23            5.8336     1.8136     5.6864 C.ar    
  24 C24            5.1943     2.8700     5.0535 C.ar    
  25 C25            5.7255     3.3782     3.8838 C.ar    
  26 F26            5.3203     1.3162     6.8328 F       
  27 H27            1.4055    -1.3535    -0.1197 H       
  28 H28           -2.7871    -0.4929    -0.2758 H       
  29 H29           -1.4300     1.6861    -0.2882 H       
  30 H30            0.3231     3.4284    -0.2963 H       
  31 H31            5.3402     1.5797    -0.0740 H       
  32 H32            5.0474     2.7364    -2.2587 H       
  33 H33            4.9008     4.2913    -1.4055 H       
  34 H34            7.3211     2.4345    -1.2908 H       
  35 H35            7.2125     3.9288    -2.2529 H       
  36 H36            8.3775     4.2570    -0.0422 H       
  37 H37            6.9188     5.2658    -0.2200 H       
  38 H38            4.7319     4.3222     1.1239 H       
  39 H39            5.0215     2.8089     2.0202 H       
  40 H40            8.3787     1.2775     3.6914 H       
  41 H41            4.2934     3.2929     5.4728 H       
  42 H42            5.2488     4.2002     3.3706 H       
@<TRIPOS>BOND
   1    1    2 2
   2    1    6 1
   3    1    5 1
   4    2    3 1
   5    2   27 1
   6    3    4 2
   7    3   11 1
   8    4    5 1
   9    4   28 1
  10    5   29 1
  11    6    7 1
  12    6   10 2
  13    7    8 2
  14    8    9 1
  15    8   12 1
  16    9   10 1
  17   10   30 1
  18   12   13 1
  19   12   17 1
  20   12   31 1
  21   13   14 1
  22   13   32 1
  23   13   33 1
  24   14   15 1
  25   14   34 1
  26   14   35 1
  27   15   16 1
  28   15   36 1
  29   15   37 1
  30   16   17 1
  31   16   18 am
  32   17   38 1
  33   17   39 1
  34   18   19 1
  35   18   20 2
  36   19   21 ar
  37   19   25 ar
  38   21   22 ar
  39   21   40 1
  40   22   23 ar
  41   23   24 ar
  42   23   26 1
  43   24   25 ar
  44   24   41 1
  45   25   42 1

#	End of record

