#	Name: ASD09740495
#	Creating user name:	WinNT
#	Creation time:	15. 06. 2019 21:23

#	Modifying user name:	WinNT
#	Modification time:	15. 06. 2019 21:23

#	Program:	/corina/corina34_cracker 3.40 0067  02.08.2006

@<TRIPOS>MOLECULE
ASD09740495
  71   75    0    0    0
SMALL
NO_CHARGES


@<TRIPOS>ATOM
   1 N1            -0.4062     1.1962     1.5155 N.2     
   2 C2            -0.3537    -0.0918     1.2840 C.2     
   3 C3             0.7281     1.8219     1.6616 C.2     
   4 S4             2.0515     0.6719     1.4919 S.3     
   5 C5             0.8868    -0.6235     1.2238 C.2     
   6 C6             0.8796     3.2676     1.9268 C.ar    
   7 C7            -0.2480     4.0766     2.0402 C.ar    
   8 C8             2.1554     3.8224     2.0696 C.ar    
   9 C9             2.3026     5.1697     2.3173 C.ar    
  10 C10            1.1859     5.9865     2.4271 C.ar    
  11 C11           -0.0989     5.4402     2.2904 C.ar    
  12 O12            1.3366     7.3124     2.6716 O.3     
  13 C13            2.6634     7.7785     2.9255 C.3     
  14 C14            3.3666     8.0641     1.5971 C.3     
  15 C15            2.6028     9.0615     3.7568 C.3     
  16 C16           -1.2529     6.2805     2.4032 C.1     
  17 N17           -2.1684     6.9471     2.4926 N.1     
  18 C18            1.2108    -2.0442     0.9769 C.ar    
  19 C19            2.1495    -2.3886    -0.0006 C.ar    
  20 C20            2.4478    -3.7163    -0.2257 C.ar    
  21 C21            1.8163    -4.7028     0.5164 C.ar    
  22 C22            0.8869    -4.3677     1.4830 C.ar    
  23 C23            0.5848    -3.0429     1.7226 C.ar    
  24 C24            2.9635    -1.5145    -0.9302 C.3     
  25 C25            4.1042    -2.4207    -1.4402 C.3     
  26 C26            3.4839    -3.8293    -1.3238 C.3     
  27 N27            4.5101    -4.8078    -0.9557 N.am    
  28 S28            4.4392    -6.3486    -1.5585 S.o2    
  29 O29            5.5578    -7.0042    -0.9769 O.2     
  30 O30            3.1129    -6.7742    -1.2774 O.2     
  31 C31            4.6778    -6.1469    -3.3454 C.3     
  32 C32            4.6322    -7.5175    -4.0239 C.3     
  33 N33            4.7026    -7.3451    -5.4810 N.3     
  34 C34            4.7677    -8.6538    -6.1671 C.3     
  35 C35            5.6548    -8.4676    -7.4120 C.3     
  36 C36            6.1082    -6.9903    -7.3674 C.3     
  37 C37            5.9390    -6.6209    -5.8723 C.3     
  38 N38            7.5130    -6.8650    -7.7781 N.3     
  39 H39           -1.2433    -0.6895     1.1504 H       
  40 H40           -1.2343     3.6497     1.9344 H       
  41 H41            3.0285     3.1923     1.9857 H       
  42 H42            3.2906     5.5918     2.4269 H       
  43 H43            3.2176     7.0164     3.4734 H       
  44 H44            3.4097     7.1501     1.0049 H       
  45 H45            2.8124     8.8262     1.0491 H       
  46 H46            4.3786     8.4197     1.7908 H       
  47 H47            2.1019     8.8580     4.7032 H       
  48 H48            3.6149     9.4170     3.9505 H       
  49 H49            2.0487     9.8236     3.2089 H       
  50 H50            2.0524    -5.7414     0.3375 H       
  51 H51            0.4004    -5.1437     2.0553 H       
  52 H52           -0.1414    -2.7807     2.4778 H       
  53 H53            2.3493    -1.1742    -1.7638 H       
  54 H54            3.3717    -0.6621    -0.3872 H       
  55 H55            4.3489    -2.1894    -2.4769 H       
  56 H56            4.9845    -2.3311    -0.8037 H       
  57 H57            3.0098    -4.1126    -2.2635 H       
  58 H58            5.2311    -4.5532    -0.3588 H       
  59 H59            3.8862    -5.5154    -3.7487 H       
  60 H60            5.6453    -5.6809    -3.5325 H       
  61 H61            5.4778    -8.1176    -3.6877 H       
  62 H62            3.7020    -8.0217    -3.7622 H       
  63 H63            5.2089    -9.3987    -5.5048 H       
  64 H64            3.7674    -8.9659    -6.4672 H       
  65 H65            6.5190    -9.1301    -7.3633 H       
  66 H66            5.0803    -8.6599    -8.3181 H       
  67 H67            5.4656    -6.3706    -7.9929 H       
  68 H68            5.8085    -5.5452    -5.7541 H       
  69 H69            6.7911    -6.9722    -5.2904 H       
  70 H70            7.6420    -7.1827    -8.7271 H       
  71 H71            7.8391    -5.9167    -7.6667 H       
@<TRIPOS>BOND
   1    1    2 1
   2    1    3 2
   3    2    5 2
   4    2   39 1
   5    3    4 1
   6    3    6 1
   7    4    5 1
   8    5   18 1
   9    6    7 ar
  10    6    8 ar
  11    7   11 ar
  12    7   40 1
  13    8    9 ar
  14    8   41 1
  15    9   10 ar
  16    9   42 1
  17   10   11 ar
  18   10   12 1
  19   11   16 1
  20   12   13 1
  21   13   14 1
  22   13   15 1
  23   13   43 1
  24   14   44 1
  25   14   45 1
  26   14   46 1
  27   15   47 1
  28   15   48 1
  29   15   49 1
  30   16   17 3
  31   18   19 ar
  32   18   23 ar
  33   19   20 ar
  34   19   24 1
  35   20   21 ar
  36   20   26 1
  37   21   22 ar
  38   21   50 1
  39   22   23 ar
  40   22   51 1
  41   23   52 1
  42   24   25 1
  43   24   53 1
  44   24   54 1
  45   25   26 1
  46   25   55 1
  47   25   56 1
  48   26   27 1
  49   26   57 1
  50   27   28 am
  51   27   58 1
  52   28   29 2
  53   28   30 2
  54   28   31 1
  55   31   32 1
  56   31   59 1
  57   31   60 1
  58   32   33 1
  59   32   61 1
  60   32   62 1
  61   33   34 1
  62   33   37 1
  63   34   35 1
  64   34   63 1
  65   34   64 1
  66   35   36 1
  67   35   65 1
  68   35   66 1
  69   36   37 1
  70   36   38 1
  71   36   67 1
  72   37   68 1
  73   37   69 1
  74   38   70 1
  75   38   71 1

#	End of record

