#	Name: ASD01813688
#	Creating user name:	WinNT
#	Creation time:	15. 06. 2019 19:30

#	Modifying user name:	WinNT
#	Modification time:	15. 06. 2019 19:30

#	Program:	/corina/corina34_cracker 3.40 0067  02.08.2006

@<TRIPOS>MOLECULE
ASD01813688
  40   43    0    0    0
SMALL
NO_CHARGES


@<TRIPOS>ATOM
   1 C1             7.3324     1.2169    -0.2620 C.ar    
   2 C2             7.2511    -0.1672    -0.2628 C.ar    
   3 C3             6.0280    -0.8020    -0.1880 C.ar    
   4 C4             4.8567    -0.0509    -0.1102 C.ar    
   5 C5             4.9407     1.3520    -0.1090 C.ar    
   6 C6             6.1856     1.9815    -0.1856 C.ar    
   7 N7             3.6286    -0.6739    -0.0361 N.pl3   
   8 C8             2.4755     0.0026     0.0393 C.2     
   9 C9             2.4316     1.3821     0.0480 C.2     
  10 C10            3.6947     2.1345    -0.0262 C.2     
  11 O11            3.7093     3.3530    -0.0213 O.2     
  12 C12            1.1453     2.0881     0.1308 C.2     
  13 O13            1.1154     3.4358     0.1385 O.3     
  14 O14            0.1083     1.4567     0.1924 O.2     
  15 C15            3.5837    -2.1382    -0.0406 C.3     
  16 C16            3.4403    -2.6321    -1.4571 C.ar    
  17 C17            4.5504    -2.7828    -2.2700 C.ar    
  18 C18            4.3785    -3.2406    -3.5706 C.ar    
  19 N19            3.1717    -3.5293    -4.0296 N.ar    
  20 C20            2.0955    -3.3957    -3.2788 C.ar    
  21 C21            2.1926    -2.9516    -1.9746 C.ar    
  22 F22            5.9661    -2.1516    -0.1908 F       
  23 F23            6.2667     3.3301    -0.1840 F       
  24 N24            5.4915    -3.3973    -4.4023 N.pl3   
  25 C25            5.4743    -3.8332    -5.6888 C.2     
  26 C26            6.7512    -3.8409    -6.1354 C.2     
  27 C27            7.5754    -3.3976    -5.0948 C.2     
  28 N28            6.8227    -3.1271    -4.0596 N.2     
  29 H29            8.2974     1.6988    -0.3169 H       
  30 H30            8.1550    -0.7551    -0.3229 H       
  31 H31            1.5490    -0.5496     0.0947 H       
  32 H32            0.2459     3.8553     0.1942 H       
  33 H33            4.5048    -2.5313     0.3897 H       
  34 H34            2.7329    -2.4774     0.5503 H       
  35 H35            5.5367    -2.5473    -1.8986 H       
  36 H36            1.1264    -3.6407    -3.6878 H       
  37 H37            1.3062    -2.8454    -1.3667 H       
  38 H38            4.5997    -4.1219    -6.2527 H       
  39 H39            7.0773    -4.1374    -7.1214 H       
  40 H40            8.6493    -3.2932    -5.1398 H       
@<TRIPOS>BOND
   1    1    2 ar
   2    1    6 ar
   3    1   29 1
   4    2    3 ar
   5    2   30 1
   6    3    4 ar
   7    3   22 1
   8    4    5 ar
   9    4    7 1
  10    5    6 ar
  11    5   10 1
  12    6   23 1
  13    7    8 1
  14    7   15 1
  15    8    9 2
  16    8   31 1
  17    9   10 1
  18    9   12 1
  19   10   11 2
  20   12   13 1
  21   12   14 2
  22   13   32 1
  23   15   16 1
  24   15   33 1
  25   15   34 1
  26   16   17 ar
  27   16   21 ar
  28   17   18 ar
  29   17   35 1
  30   18   19 ar
  31   18   24 1
  32   19   20 ar
  33   20   21 ar
  34   20   36 1
  35   21   37 1
  36   24   25 1
  37   24   28 1
  38   25   26 2
  39   25   38 1
  40   26   27 1
  41   26   39 1
  42   27   28 2
  43   27   40 1

#	End of record

