#	Name: ASD03731205
#	Creating user name:	WinNT
#	Creation time:	15. 06. 2019 20:45

#	Modifying user name:	WinNT
#	Modification time:	15. 06. 2019 20:45

#	Program:	/corina/corina34_cracker 3.40 0067  02.08.2006

@<TRIPOS>MOLECULE
ASD03731205
  65   71    0    0    0
SMALL
NO_CHARGES


@<TRIPOS>ATOM
   1 C1            -0.5805     1.3623    -0.3290 C.2     
   2 C2            -0.5949    -0.1072    -0.1698 C.ar    
   3 C3             0.1990    -0.9091    -0.9915 C.ar    
   4 C4             0.1809    -2.2799    -0.8377 C.ar    
   5 C5            -0.6218    -2.8602     0.1284 C.ar    
   6 C6            -1.4111    -2.0711     0.9462 C.ar    
   7 C7            -1.3980    -0.6987     0.8068 C.ar    
   8 O8             0.1237     1.8749    -1.1769 O.2     
   9 N9            -1.3524     2.1334     0.4623 N.am    
  10 C10           -0.6368    -4.3584     0.2904 C.3     
  11 O11            2.6590    -0.9788     5.7132 O.3     
  12 C12            3.5584    -0.9409     6.8369 C.3     
  13 O13            3.3435    -2.2058     7.4901 O.3     
  14 C14            2.9238    -3.0577     6.5088 C.ar    
  15 C15            2.5021    -2.3025     5.4168 C.ar    
  16 C16            2.8675    -4.4389     6.4577 C.ar    
  17 C17            2.3896    -5.0835     5.3208 C.ar    
  18 C18            1.9635    -4.3183     4.2394 C.ar    
  19 C19            2.0241    -2.9411     4.2849 C.ar    
  20 O20            2.2681    -6.4169     5.0607 O.3     
  21 C21            1.4838    -5.2865     3.1914 C.3     
  22 C22            1.3526    -6.6057     3.9645 C.3     
  23 N23            0.3921    -4.7557     1.2547 N.am    
  24 C24            0.1787    -4.8629     2.5813 C.2     
  25 C25            2.4405    -5.4041     2.0421 C.ar    
  26 C26            3.7696    -5.7500     1.9423 C.ar    
  27 C27            4.3900    -5.7677     0.7058 C.ar    
  28 C28            3.6723    -5.4365    -0.4292 C.ar    
  29 C29            2.3411    -5.0884    -0.3342 C.ar    
  30 C30            1.7083    -5.0683     0.9063 C.ar    
  31 O31           -0.8632    -4.6579     3.1673 O.2     
  32 C32           -1.2937     3.5263     0.3531 C.ar    
  33 C33           -2.4161     4.2412    -0.0445 C.ar    
  34 C34           -2.3548     5.6168    -0.1514 C.ar    
  35 C35           -1.1774     6.2823     0.1365 C.ar    
  36 C36           -0.0580     5.5736     0.5327 C.ar    
  37 C37           -0.1144     4.1984     0.6475 C.ar    
  38 C38            1.1042     3.4274     1.0853 C.3     
  39 C39           -3.6994     3.5166    -0.3595 C.3     
  40 H40            0.8257    -0.4574    -1.7462 H       
  41 H41            0.7944    -2.9015    -1.4730 H       
  42 H42           -2.0354    -2.5304     1.6984 H       
  43 H43           -2.0112    -0.0836     1.4487 H       
  44 H44           -1.9486     1.7222     1.1075 H       
  45 H45           -1.6152    -4.6750     0.6518 H       
  46 H46           -0.4347    -4.8299    -0.6714 H       
  47 H47            4.5909    -0.8553     6.4983 H       
  48 H48            3.3035    -0.1172     7.5038 H       
  49 H49            3.1967    -5.0209     7.3059 H       
  50 H50            1.6975    -2.3593     3.4357 H       
  51 H51            1.6585    -7.4492     3.3456 H       
  52 H52            0.3345    -6.7410     4.3294 H       
  53 H53            4.3281    -6.0080     2.8299 H       
  54 H54            5.4322    -6.0398     0.6269 H       
  55 H55            4.1567    -5.4502    -1.3944 H       
  56 H56            1.7874    -4.8305    -1.2249 H       
  57 H57           -3.2273     6.1732    -0.4605 H       
  58 H58           -1.1318     7.3580     0.0515 H       
  59 H59            0.8602     6.0964     0.7565 H       
  60 H60            1.7486     3.2473     0.2249 H       
  61 H61            1.6492     4.0033     1.8333 H       
  62 H62            0.7960     2.4740     1.5145 H       
  63 H63           -4.2999     3.4308     0.5461 H       
  64 H64           -4.2559     4.0740    -1.1130 H       
  65 H65           -3.4706     2.5209    -0.7394 H       
@<TRIPOS>BOND
   1    1    2 1
   2    1    8 2
   3    1    9 am
   4    2    3 ar
   5    2    7 ar
   6    3    4 ar
   7    3   40 1
   8    4    5 ar
   9    4   41 1
  10    5    6 ar
  11    5   10 1
  12    6    7 ar
  13    6   42 1
  14    7   43 1
  15    9   32 1
  16    9   44 1
  17   10   23 1
  18   10   45 1
  19   10   46 1
  20   11   12 1
  21   11   15 1
  22   12   13 1
  23   12   47 1
  24   12   48 1
  25   13   14 1
  26   14   15 ar
  27   14   16 ar
  28   15   19 ar
  29   16   17 ar
  30   16   49 1
  31   17   18 ar
  32   17   20 1
  33   18   19 ar
  34   18   21 1
  35   19   50 1
  36   20   22 1
  37   21   22 1
  38   21   24 1
  39   21   25 1
  40   22   51 1
  41   22   52 1
  42   23   24 am
  43   23   30 1
  44   24   31 2
  45   25   26 ar
  46   25   30 ar
  47   26   27 ar
  48   26   53 1
  49   27   28 ar
  50   27   54 1
  51   28   29 ar
  52   28   55 1
  53   29   30 ar
  54   29   56 1
  55   32   33 ar
  56   32   37 ar
  57   33   34 ar
  58   33   39 1
  59   34   35 ar
  60   34   57 1
  61   35   36 ar
  62   35   58 1
  63   36   37 ar
  64   36   59 1
  65   37   38 1
  66   38   60 1
  67   38   61 1
  68   38   62 1
  69   39   63 1
  70   39   64 1
  71   39   65 1

#	End of record

