#	Name: ASD03092045
#	Creating user name:	WinNT
#	Creation time:	15. 06. 2019 20:31

#	Modifying user name:	WinNT
#	Modification time:	15. 06. 2019 20:31

#	Program:	/corina/corina34_cracker 3.40 0067  02.08.2006

@<TRIPOS>MOLECULE
ASD03092045
  46   48    0    0    0
SMALL
NO_CHARGES


@<TRIPOS>ATOM
   1 N1             0.1289     1.3372     0.0448 N.am    
   2 C2            -0.0102    -0.0254    -0.0087 C.2     
   3 C3            -1.3455    -0.2966    -0.0524 C.2     
   4 C4            -2.0337     0.9271    -0.0250 C.2     
   5 N5            -1.1542     1.8988     0.0385 N.2     
   6 C6             1.2924     2.0153     0.0994 C.2     
   7 N7             1.2916     3.3615     0.0337 N.am    
   8 N8            -3.4220     1.0835    -0.0551 N.pl3   
   9 C9            -3.9859     2.3542     0.0963 C.ar    
  10 C10           -5.2405     2.6259    -0.4335 C.ar    
  11 C11           -5.7958     3.8816    -0.2824 C.ar    
  12 C12           -5.1023     4.8692     0.3963 C.ar    
  13 C13           -3.8509     4.6006     0.9255 C.ar    
  14 C14           -3.2944     3.3450     0.7818 C.ar    
  15 C15            1.0859    -1.0181    -0.0180 C.ar    
  16 C16            0.9624    -2.2324     0.6667 C.ar    
  17 C17            2.0097    -3.1295     0.6313 C.ar    
  18 N18            3.1146    -2.8551    -0.0353 N.ar    
  19 C19            3.2722    -1.7226    -0.6941 C.ar    
  20 C20            2.2736    -0.7717    -0.7168 C.ar    
  21 C21            2.5563     4.0985     0.0932 C.3     
  22 C22            4.5585    -1.4674    -1.4365 C.3     
  23 O23            2.3422     1.4130     0.2080 O.2     
  24 C24            2.2766     5.5998    -0.0012 C.3     
  25 F25           -5.6468     6.0970     0.5421 F       
  26 C26           -7.1572     4.1771    -0.8571 C.3     
  27 F27           -7.6537     3.0334    -1.4917 F       
  28 F28           -8.0263     4.5536     0.1725 F       
  29 F29           -7.0554     5.2185    -1.7857 F       
  30 H30           -1.7941    -1.2779    -0.1002 H       
  31 H31            0.4536     3.8423    -0.0530 H       
  32 H32           -3.9945     0.3107    -0.1809 H       
  33 H33           -5.7816     1.8560    -0.9636 H       
  34 H34           -3.3117     5.3725     1.4545 H       
  35 H35           -2.3185     3.1360     1.1947 H       
  36 H36            0.0609    -2.4634     1.2148 H       
  37 H37            1.9241    -4.0691     1.1569 H       
  38 H38            2.4095     0.1530    -1.2580 H       
  39 H39            3.0595     3.8812     1.0353 H       
  40 H40            3.1933     3.7947    -0.7375 H       
  41 H41            4.4690    -1.8398    -2.4570 H       
  42 H42            4.7599    -0.3964    -1.4569 H       
  43 H43            5.3770    -1.9815    -0.9326 H       
  44 H44            1.7733     5.8171    -0.9433 H       
  45 H45            1.6396     5.9036     0.8295 H       
  46 H46            3.2175     6.1482     0.0430 H       
@<TRIPOS>BOND
   1    1    2 1
   2    1    6 am
   3    1    5 1
   4    2    3 2
   5    2   15 1
   6    3    4 1
   7    3   30 1
   8    4    5 2
   9    4    8 1
  10    6    7 am
  11    6   23 2
  12    7   21 1
  13    7   31 1
  14    8    9 1
  15    8   32 1
  16    9   10 ar
  17    9   14 ar
  18   10   11 ar
  19   10   33 1
  20   11   12 ar
  21   11   26 1
  22   12   13 ar
  23   12   25 1
  24   13   14 ar
  25   13   34 1
  26   14   35 1
  27   15   16 ar
  28   15   20 ar
  29   16   17 ar
  30   16   36 1
  31   17   18 ar
  32   17   37 1
  33   18   19 ar
  34   19   20 ar
  35   19   22 1
  36   20   38 1
  37   21   24 1
  38   21   39 1
  39   21   40 1
  40   22   41 1
  41   22   42 1
  42   22   43 1
  43   24   44 1
  44   24   45 1
  45   24   46 1
  46   26   27 1
  47   26   28 1
  48   26   29 1

#	End of record

