#	Name: ASD01478017
#	Creating user name:	WinNT
#	Creation time:	15. 06. 2019 19:21

#	Modifying user name:	WinNT
#	Modification time:	15. 06. 2019 19:21

#	Program:	/corina/corina34_cracker 3.40 0067  02.08.2006

@<TRIPOS>MOLECULE
ASD01478017
  82   85    0    0    0
SMALL
NO_CHARGES


@<TRIPOS>ATOM
   1 C1            -0.5116     1.5344    -1.8902 C.3     
   2 C2             1.6181     2.2822    -2.6657 C.2     
   3 O3             0.7700     2.1640    -1.6267 O.3     
   4 N4             2.8242     2.8572    -2.4891 N.am    
   5 O5             1.2960     1.8706    -3.7627 O.2     
   6 C6             3.4187     4.2579    -4.4037 C.3     
   7 C7             3.7470     2.9858    -3.6196 C.3     
   8 C8             5.1835     3.0640    -3.0990 C.3     
   9 C9             6.1547     3.0728    -4.2813 C.3     
  10 N10            7.5311     3.0155    -3.7830 N.am    
  11 S11            8.5524     4.2969    -4.0225 S.o2    
  12 C12            8.3735     5.3722    -2.6381 C.ar    
  13 C13            9.1767     5.2041    -1.5253 C.ar    
  14 C14            9.0385     6.0458    -0.4387 C.ar    
  15 C15            8.0927     7.0605    -0.4647 C.ar    
  16 C16            7.2880     7.2271    -1.5824 C.ar    
  17 C17            7.4341     6.3863    -2.6687 C.ar    
  18 O18            9.8726     3.7754    -3.9576 O.2     
  19 O19            8.0508     5.0049    -5.1479 O.2     
  20 C20            8.0042     1.8246    -3.0729 C.3     
  21 C21            8.0623     0.6423    -4.0422 C.3     
  22 C22            9.0824     0.9359    -5.1441 C.3     
  23 C23            8.4798    -0.6191    -3.2836 C.3     
  24 O24            5.3496     4.2617    -2.3373 O.3     
  25 C25           -0.4065     0.0162    -1.6682 C.3     
  26 O26           -0.1163    -0.3007    -0.3106 O.3     
  27 C27           -1.0136     0.2336     0.6784 C.3     
  28 C28           -1.0133     1.7375     0.5093 C.3     
  29 C29           -1.5574     2.0536    -0.9114 C.3     
  30 C30           -1.8422     2.5563     1.4826 C.3     
  31 C31           -1.8592     4.0179     0.9585 C.3     
  32 S32           -1.6602     3.8724    -0.8601 S.o2    
  33 O33           -0.4100     4.4277    -1.2448 O.2     
  34 O34           -2.8549     4.2967    -1.5019 O.2     
  35 C35            2.0493     4.1291    -5.0195 C.ar    
  36 C36            0.9342     4.5501    -4.3193 C.ar    
  37 C37           -0.3220     4.4319    -4.8841 C.ar    
  38 C38           -0.4630     3.8932    -6.1494 C.ar    
  39 C39            0.6522     3.4731    -6.8499 C.ar    
  40 C40            1.9087     3.5953    -6.2869 C.ar    
  41 O41            7.9545     7.8895     0.6032 O.3     
  42 C42            6.9606     8.9118     0.5066 C.3     
  43 H43           -0.8236     1.7402    -2.9142 H       
  44 H44            3.0812     3.1858    -1.6134 H       
  45 H45            3.4349     5.1145    -3.7298 H       
  46 H46            4.1590     4.4008    -5.1909 H       
  47 H47            3.6440     2.1195    -4.2731 H       
  48 H48            5.3885     2.2000    -2.4669 H       
  49 H49            5.9618     2.2080    -4.9162 H       
  50 H50            6.0152     3.9863    -4.8593 H       
  51 H51            9.9126     4.4138    -1.5055 H       
  52 H52            9.6659     5.9139     0.4304 H       
  53 H53            6.5511     8.0163    -1.6050 H       
  54 H54            6.8079     6.5155    -3.5391 H       
  55 H55            8.9991     2.0133    -2.6698 H       
  56 H56            7.3197     1.5923    -2.2570 H       
  57 H57            7.0796     0.4895    -4.4883 H       
  58 H58           10.0652     1.0887    -4.6980 H       
  59 H59            9.1239     0.0936    -5.8346 H       
  60 H60            8.7850     1.8345    -5.6845 H       
  61 H61            7.7531    -0.8282    -2.4986 H       
  62 H62            8.5213    -1.4614    -3.9742 H       
  63 H63            9.4626    -0.4662    -2.8376 H       
  64 H64            5.1828     5.0722    -2.8376 H       
  65 H65           -1.3515    -0.4498    -1.9475 H       
  66 H66            0.3853    -0.3815    -2.3029 H       
  67 H67           -2.0182    -0.1583     0.5194 H       
  68 H68           -0.6648    -0.0285     1.6773 H       
  69 H69            0.0162     2.0909     0.5668 H       
  70 H70           -2.5286     1.5896    -1.0835 H       
  71 H71           -2.8588     2.1654     1.5237 H       
  72 H72           -1.3898     2.5232     2.4737 H       
  73 H73           -2.8092     4.4954     1.1986 H       
  74 H74           -1.0313     4.5834     1.3861 H       
  75 H75            1.0443     4.9709    -3.3308 H       
  76 H76           -1.1932     4.7601    -4.3368 H       
  77 H77           -1.4444     3.8002    -6.5904 H       
  78 H78            0.5420     3.0520    -7.8383 H       
  79 H79            2.7803     3.2705    -6.8357 H       
  80 H80            7.1872     9.5599    -0.3400 H       
  81 H81            5.9818     8.4544     0.3623 H       
  82 H82            6.9548     9.5007     1.4237 H       
@<TRIPOS>BOND
   1    1   25 1
   2    1    3 1
   3    1   29 1
   4    1   43 1
   5    2    3 1
   6    2    4 am
   7    2    5 2
   8    4    7 1
   9    4   44 1
  10    6    7 1
  11    6   35 1
  12    6   45 1
  13    6   46 1
  14    7    8 1
  15    7   47 1
  16    8    9 1
  17    8   24 1
  18    8   48 1
  19    9   10 1
  20    9   49 1
  21    9   50 1
  22   10   11 am
  23   10   20 1
  24   11   12 1
  25   11   18 2
  26   11   19 2
  27   12   13 ar
  28   12   17 ar
  29   13   14 ar
  30   13   51 1
  31   14   15 ar
  32   14   52 1
  33   15   16 ar
  34   15   41 1
  35   16   17 ar
  36   16   53 1
  37   17   54 1
  38   20   21 1
  39   20   55 1
  40   20   56 1
  41   21   22 1
  42   21   23 1
  43   21   57 1
  44   22   58 1
  45   22   59 1
  46   22   60 1
  47   23   61 1
  48   23   62 1
  49   23   63 1
  50   24   64 1
  51   25   26 1
  52   25   65 1
  53   25   66 1
  54   26   27 1
  55   27   28 1
  56   27   67 1
  57   27   68 1
  58   28   29 1
  59   28   30 1
  60   28   69 1
  61   29   32 1
  62   29   70 1
  63   30   31 1
  64   30   71 1
  65   30   72 1
  66   31   32 1
  67   31   73 1
  68   31   74 1
  69   32   33 2
  70   32   34 2
  71   35   36 ar
  72   35   40 ar
  73   36   37 ar
  74   36   75 1
  75   37   38 ar
  76   37   76 1
  77   38   39 ar
  78   38   77 1
  79   39   40 ar
  80   39   78 1
  81   40   79 1
  82   41   42 1
  83   42   80 1
  84   42   81 1
  85   42   82 1

#	End of record

