#	Name: ASD01948136
#	Creating user name:	WinNT
#	Creation time:	15. 06. 2019 20:13

#	Modifying user name:	WinNT
#	Modification time:	15. 06. 2019 20:13

#	Program:	/corina/corina34_cracker 3.40 0067  02.08.2006

@<TRIPOS>MOLECULE
ASD01948136
  51   53    0    0    0
SMALL
NO_CHARGES


@<TRIPOS>ATOM
   1 C1             1.9132     1.8166    -0.9631 C.ar    
   2 C2             1.7186     0.4396    -0.9351 C.ar    
   3 C3             1.8634    -0.3051    -2.0971 C.ar    
   4 C4             2.2008     0.3207    -3.2816 C.ar    
   5 C5             2.3954     1.6952    -3.3106 C.ar    
   6 C6             2.2452     2.4428    -2.1496 C.ar    
   7 N7             1.3766    -0.1958     0.2665 N.pl3   
   8 C8             3.7805    -1.8171    -0.0805 C.2     
   9 C9             2.5069    -2.3933     0.1517 C.2     
  10 C10            1.3096    -1.5728     0.3241 C.2     
  11 N11            4.8344    -2.6511    -0.2338 N.am    
  12 F12            1.7725     2.5423     0.1678 F       
  13 C13            2.3963    -3.7895     0.2177 C.2     
  14 N14            1.1756    -4.3620     0.4414 N.am    
  15 C15            0.0692    -3.6168     0.6012 C.2     
  16 C16            0.1047    -2.2209     0.5478 C.2     
  17 C17            4.6607    -3.9917    -0.1647 C.2     
  18 N18            3.4966    -4.5379     0.0595 N.2     
  19 O19            3.9210    -0.6086    -0.1451 O.2     
  20 C20            1.0711    -5.8217     0.5081 C.3     
  21 O21           -0.9979    -4.1753     0.7983 O.2     
  22 N22            2.7376     2.3279    -4.5107 N.am    
  23 C23            6.1703    -2.1007    -0.4758 C.3     
  24 C24            6.8755    -1.8669     0.8618 C.3     
  25 C25            8.2192    -1.1775     0.6162 C.3     
  26 O26            7.0952    -3.1213     1.5101 O.3     
  27 O27            8.8248    -0.8543     1.8695 O.3     
  28 S28            1.5894     2.5597    -5.6813 S.o2    
  29 C29            0.3870     3.6843    -4.9196 C.3     
  30 O30            2.2874     3.2134    -6.7323 O.2     
  31 O31            1.0176     1.2726    -5.8710 O.2     
  32 H32            1.7126    -1.3743    -2.0754 H       
  33 H33            2.3137    -0.2596    -4.1854 H       
  34 H34            2.3965     3.5120    -2.1722 H       
  35 H35            1.1871     0.3326     1.0576 H       
  36 H36           -0.8024    -1.6497     0.6797 H       
  37 H37            5.5198    -4.6338    -0.2911 H       
  38 H38            1.2149    -6.1496     1.5376 H       
  39 H39            0.0849    -6.1316     0.1624 H       
  40 H40            1.8359    -6.2700    -0.1262 H       
  41 H41            3.6474     2.6309    -4.6570 H       
  42 H42            6.7500    -2.8035    -1.0742 H       
  43 H43            6.0822    -1.1548    -1.0103 H       
  44 H44            6.2532    -1.2347     1.4950 H       
  45 H45            8.8741    -1.8464     0.0579 H       
  46 H46            8.0595    -0.2639     0.0436 H       
  47 H47            7.6427    -3.7358     1.0024 H       
  48 H48            9.6820    -0.4138     1.7902 H       
  49 H49            0.8614     4.6464    -4.7260 H       
  50 H50           -0.4573     3.8248    -5.5946 H       
  51 H51            0.0345     3.2576    -3.9807 H       
@<TRIPOS>BOND
   1    1    2 ar
   2    1   12 1
   3    1    6 ar
   4    2    3 ar
   5    2    7 1
   6    3    4 ar
   7    3   32 1
   8    4    5 ar
   9    4   33 1
  10    5    6 ar
  11    5   22 1
  12    6   34 1
  13    7   10 1
  14    7   35 1
  15    8    9 1
  16    8   19 2
  17    8   11 am
  18    9   10 1
  19    9   13 2
  20   10   16 2
  21   11   17 1
  22   11   23 1
  23   13   14 1
  24   13   18 1
  25   14   15 am
  26   14   20 1
  27   15   16 1
  28   15   21 2
  29   16   36 1
  30   17   18 2
  31   17   37 1
  32   20   38 1
  33   20   39 1
  34   20   40 1
  35   22   28 am
  36   22   41 1
  37   23   24 1
  38   23   42 1
  39   23   43 1
  40   24   25 1
  41   24   26 1
  42   24   44 1
  43   25   27 1
  44   25   45 1
  45   25   46 1
  46   26   47 1
  47   27   48 1
  48   28   29 1
  49   28   30 2
  50   28   31 2
  51   29   49 1
  52   29   50 1
  53   29   51 1

#	End of record

