#	Name: ASD01882096
#	Creating user name:	WinNT
#	Creation time:	15. 06. 2019 19:43

#	Modifying user name:	WinNT
#	Modification time:	15. 06. 2019 19:43

#	Program:	/corina/corina34_cracker 3.40 0067  02.08.2006

@<TRIPOS>MOLECULE
ASD01882096
  49   53    0    0    0
SMALL
NO_CHARGES


@<TRIPOS>ATOM
   1 C1            -0.0161     1.3337     0.0094 C.2     
   2 N2             0.0021    -0.0041     0.0020 N.am    
   3 C3             1.2613    -0.4841    -0.0126 C.2     
   4 C4             2.1640     0.7337    -0.0147 C.3     
   5 N5             1.2200     1.8645     0.0004 N.am    
   6 O6            -1.0354     1.9955     0.0180 O.2     
   7 O7             1.6013    -1.6477    -0.0215 O.2     
   8 C8            -1.1986    -0.8435     0.0097 C.3     
   9 C9             1.5609     3.2893     0.0041 C.3     
  10 C10            1.6916     3.7708     1.4261 C.ar    
  11 C11            2.9179     3.7119     2.0633 C.ar    
  12 C12            3.0434     4.1514     3.3666 C.ar    
  13 C13            1.9300     4.6559     4.0395 C.ar    
  14 C14            0.6976     4.7127     3.3911 C.ar    
  15 C15            0.5860     4.2752     2.0868 C.ar    
  16 C16            2.2774     6.7376     9.3449 C.2     
  17 N17            1.6837     7.9344     9.1989 N.am    
  18 C18            1.2654     8.0867     7.8007 C.3     
  19 C19            1.6808     6.8191     7.0962 C.ar    
  20 C20            1.5620     6.3838     5.8000 C.ar    
  21 C21            2.0573     5.1290     5.4388 C.ar    
  22 C22            2.6713     4.3210     6.3956 C.ar    
  23 C23            2.7910     4.7573     7.6972 C.ar    
  24 C24            2.2954     6.0143     8.0610 C.ar    
  25 O25            2.7388     6.3139    10.3870 O.2     
  26 C26            1.4861     8.9239    10.2610 C.3     
  27 C27            0.6551     8.5016    11.4742 C.3     
  28 C28            2.1708     8.6645    11.6044 C.3     
  29 Cl29           3.5565     3.7485     8.8846 Cl      
  30 Cl30           4.5826     4.0760     4.1658 Cl      
  31 H31            2.7924     0.7467     0.8759 H       
  32 H32            2.7753     0.7564    -0.9169 H       
  33 H33           -1.5068    -1.0461    -1.0159 H       
  34 H34           -0.9813    -1.7838     0.5163 H       
  35 H35           -2.0010    -0.3250     0.5345 H       
  36 H36            2.5060     3.4381    -0.5182 H       
  37 H37            0.7749     3.8522    -0.4994 H       
  38 H38            3.7786     3.3211     1.5409 H       
  39 H39           -0.1678     5.1018     3.9071 H       
  40 H40           -0.3678     4.3228     1.5824 H       
  41 H41            0.1838     8.2094     7.7445 H       
  42 H42            1.7643     8.9456     7.3519 H       
  43 H43            1.0859     7.0107     5.0605 H       
  44 H44            3.0537     3.3506     6.1156 H       
  45 H45            1.4030     9.9590     9.9296 H       
  46 H46            0.0256     9.2590    11.9413 H       
  47 H47            0.2554     7.4876    11.4822 H       
  48 H48            2.7683     7.7577    11.6980 H       
  49 H49            2.5385     9.5291    12.1571 H       
@<TRIPOS>BOND
   1    1    2 am
   2    1    5 am
   3    1    6 2
   4    2    3 am
   5    2    8 1
   6    3    4 1
   7    3    7 2
   8    4    5 1
   9    4   31 1
  10    4   32 1
  11    5    9 1
  12    8   33 1
  13    8   34 1
  14    8   35 1
  15    9   10 1
  16    9   36 1
  17    9   37 1
  18   10   11 ar
  19   10   15 ar
  20   11   12 ar
  21   11   38 1
  22   12   13 ar
  23   12   30 1
  24   13   14 ar
  25   13   21 1
  26   14   15 ar
  27   14   39 1
  28   15   40 1
  29   16   17 am
  30   16   24 1
  31   16   25 2
  32   17   18 1
  33   17   26 1
  34   18   19 1
  35   18   41 1
  36   18   42 1
  37   19   20 ar
  38   19   24 ar
  39   20   21 ar
  40   20   43 1
  41   21   22 ar
  42   22   23 ar
  43   22   44 1
  44   23   24 ar
  45   23   29 1
  46   26   27 1
  47   26   28 1
  48   26   45 1
  49   27   28 1
  50   27   46 1
  51   27   47 1
  52   28   48 1
  53   28   49 1

#	End of record

