#	Name: ASD01810711
#	Creating user name:	WinNT
#	Creation time:	15. 06. 2019 19:25

#	Modifying user name:	WinNT
#	Modification time:	15. 06. 2019 19:25

#	Program:	/corina/corina34_cracker 3.40 0067  02.08.2006

@<TRIPOS>MOLECULE
ASD01810711
  22   21    0    0    0
SMALL
NO_CHARGES


@<TRIPOS>ATOM
   1 C1            -0.0160     1.3304     0.0094 C.2     
   2 C2             0.0021    -0.0041     0.0020 C.2     
   3 C3            -1.2545    -0.7525     0.0100 C.2     
   4 C4            -1.2340    -2.2594     0.0017 C.3     
   5 C5            -0.9631    -2.7735     1.4170 C.3     
   6 O6            -2.3133    -0.1603     0.0233 O.2     
   7 O7            -2.4978    -2.7504    -0.4497 O.3     
   8 C8            -2.4247    -4.0055    -1.1291 C.3     
   9 C9            -3.8069    -4.4255    -1.5584 C.2     
  10 C10           -4.0038    -4.8929    -2.7662 C.2     
  11 H11            0.9118     1.8831     0.0035 H       
  12 H12           -0.9586     1.8576     0.0167 H       
  13 H13            0.9446    -0.5313    -0.0098 H       
  14 H14           -0.4483    -2.6084    -0.6683 H       
  15 H15           -0.9483    -3.8634     1.4110 H       
  16 H16            0.0009    -2.3990     1.7613 H       
  17 H17           -1.7489    -2.4245     2.0870 H       
  18 H18           -1.7859    -3.9069    -2.0067 H       
  19 H19           -2.0081    -4.7576    -0.4591 H       
  20 H20           -4.6350    -4.3412    -0.8703 H       
  21 H21           -4.9943    -5.1939    -3.0739 H       
  22 H22           -3.1756    -4.9772    -3.4543 H       
@<TRIPOS>BOND
   1    1    2 2
   2    1   11 1
   3    1   12 1
   4    2    3 1
   5    2   13 1
   6    3    4 1
   7    3    6 2
   8    4    5 1
   9    4    7 1
  10    4   14 1
  11    5   15 1
  12    5   16 1
  13    5   17 1
  14    7    8 1
  15    8    9 1
  16    8   18 1
  17    8   19 1
  18    9   10 2
  19    9   20 1
  20   10   21 1
  21   10   22 1

#	End of record

