#	Name: ASD02500243
#	Creating user name:	WinNT
#	Creation time:	15. 06. 2019 20:22

#	Modifying user name:	WinNT
#	Modification time:	15. 06. 2019 20:22

#	Program:	/corina/corina34_cracker 3.40 0067  02.08.2006

@<TRIPOS>MOLECULE
ASD02500243
  66   70    0    0    0
SMALL
NO_CHARGES


@<TRIPOS>ATOM
   1 N1            -3.1686     5.4243     0.6082 N.ar    
   2 C2            -4.3357     5.9969     0.7762 C.ar    
   3 C3            -5.1670     5.6674     1.8447 C.ar    
   4 C4            -4.7718     4.7248     2.7505 C.ar    
   5 C5            -3.5180     4.1116     2.5667 C.ar    
   6 C6            -3.0443     3.1346     3.4566 C.ar    
   7 C7            -1.8257     2.5652     3.2445 C.ar    
   8 C8            -1.0416     2.9396     2.1555 C.ar    
   9 C9            -1.4697     3.8833     1.2732 C.ar    
  10 C10           -2.7221     4.4941     1.4583 C.ar    
  11 S11           -0.4575     4.3385    -0.0953 S.o2    
  12 O12           -0.4287     5.7590    -0.1182 O.2     
  13 O13            0.7141     3.5387    -0.0114 O.2     
  14 N14           -1.2497     3.8646    -1.4701 N.am    
  15 C15           -1.4660     2.5133    -1.7172 C.ar    
  16 C16           -2.7173     2.0777    -2.1366 C.ar    
  17 C17           -2.9324     0.7334    -2.3829 C.ar    
  18 C18           -1.8823    -0.1819    -2.2067 C.ar    
  19 C19           -0.6289     0.2723    -1.7842 C.ar    
  20 C20           -0.4258     1.6016    -1.5490 C.ar    
  21 C21           -2.1001    -1.6148    -2.4654 C.2     
  22 O22           -3.0019    -2.2045    -1.9011 O.2     
  23 N23           -1.3003    -2.2731    -3.3276 N.am    
  24 C24           -1.5623    -3.6790    -3.6664 C.3     
  25 C25           -1.6839    -3.8014    -5.1904 C.3     
  26 N26           -0.5345    -3.1260    -5.8090 N.am    
  27 C27           -0.2726    -1.7202    -5.4702 C.3     
  28 C28           -0.1542    -1.5961    -3.9505 C.3     
  29 C29            0.2653    -3.7843    -6.6712 C.2     
  30 C30            1.3540    -3.0649    -7.3660 C.ar    
  31 C31            2.6708    -3.5376    -7.3069 C.ar    
  32 C32            3.6528    -2.8279    -7.9749 C.ar    
  33 C33            3.3058    -1.6850    -8.6732 C.ar    
  34 N34            2.0565    -1.2629    -8.7111 N.ar    
  35 C35            1.0859    -1.9068    -8.0965 C.ar    
  36 O36            0.0915    -4.9695    -6.8775 O.2     
  37 C37            3.0097    -4.7868    -6.5352 C.3     
  38 F38            4.3821    -5.0387    -6.6351 F       
  39 F39            2.6642    -4.6125    -5.1907 F       
  40 F40            2.2972    -5.8688    -7.0632 F       
  41 O41           -4.1517     0.3018    -2.7921 O.3     
  42 C42           -5.1710     1.2909    -2.9488 C.3     
  43 H43           -4.6614     6.7442     0.0678 H       
  44 H44           -6.1230     6.1573     1.9568 H       
  45 H45           -5.4034     4.4575     3.5848 H       
  46 H46           -3.6428     2.8366     4.3048 H       
  47 H47           -1.4621     1.8137     3.9296 H       
  48 H48           -0.0782     2.4738     2.0093 H       
  49 H49           -1.5629     4.5296    -2.1031 H       
  50 H50           -3.5205     2.7873    -2.2697 H       
  51 H51            0.1809    -0.4292    -1.6477 H       
  52 H52            0.5452     1.9479    -1.2271 H       
  53 H53           -0.7385    -4.2998    -3.3142 H       
  54 H54           -2.4924    -4.0009    -3.1982 H       
  55 H55           -1.6858    -4.8538    -5.4739 H       
  56 H56           -2.6082    -3.3287    -5.5227 H       
  57 H57            0.6576    -1.3982    -5.9385 H       
  58 H58           -1.0964    -1.0994    -5.8224 H       
  59 H59           -0.1547    -0.5429    -3.6698 H       
  60 H60            0.7721    -2.0652    -3.6190 H       
  61 H61            4.6794    -3.1623    -7.9513 H       
  62 H62            4.0703    -1.1290    -9.1956 H       
  63 H63            0.0744    -1.5326    -8.1544 H       
  64 H64           -5.3421     1.7907    -1.9954 H       
  65 H65           -4.8553     2.0236    -3.6916 H       
  66 H66           -6.0933     0.8130    -3.2791 H       
@<TRIPOS>BOND
   1    1    2 ar
   2    1   10 ar
   3    2    3 ar
   4    2   43 1
   5    3    4 ar
   6    3   44 1
   7    4    5 ar
   8    4   45 1
   9    5    6 ar
  10    5   10 ar
  11    6    7 ar
  12    6   46 1
  13    7    8 ar
  14    7   47 1
  15    8    9 ar
  16    8   48 1
  17    9   10 ar
  18    9   11 1
  19   11   12 2
  20   11   13 2
  21   11   14 am
  22   14   15 1
  23   14   49 1
  24   15   16 ar
  25   15   20 ar
  26   16   17 ar
  27   16   50 1
  28   17   18 ar
  29   17   41 1
  30   18   19 ar
  31   18   21 1
  32   19   20 ar
  33   19   51 1
  34   20   52 1
  35   21   22 2
  36   21   23 am
  37   23   24 1
  38   23   28 1
  39   24   25 1
  40   24   53 1
  41   24   54 1
  42   25   26 1
  43   25   55 1
  44   25   56 1
  45   26   27 1
  46   26   29 am
  47   27   28 1
  48   27   57 1
  49   27   58 1
  50   28   59 1
  51   28   60 1
  52   29   30 1
  53   29   36 2
  54   30   31 ar
  55   30   35 ar
  56   31   32 ar
  57   31   37 1
  58   32   33 ar
  59   32   61 1
  60   33   34 ar
  61   33   62 1
  62   34   35 ar
  63   35   63 1
  64   37   38 1
  65   37   39 1
  66   37   40 1
  67   41   42 1
  68   42   64 1
  69   42   65 1
  70   42   66 1

#	End of record

