#	Name: ASD01148324
#	Creating user name:	WinNT
#	Creation time:	15. 06. 2019 19:02

#	Modifying user name:	WinNT
#	Modification time:	15. 06. 2019 19:02

#	Program:	/corina/corina34_cracker 3.40 0067  02.08.2006

@<TRIPOS>MOLECULE
ASD01148324
  50   52    0    0    0
SMALL
NO_CHARGES


@<TRIPOS>ATOM
   1 C1            -0.0167     1.3793     0.0096 C.ar    
   2 C2             0.0021    -0.0041     0.0020 C.ar    
   3 C3            -1.1869    -0.7115     0.0095 C.ar    
   4 C4            -2.3926    -0.0360     0.0246 C.ar    
   5 C5            -2.4107     1.3463     0.0322 C.ar    
   6 C6            -1.2230     2.0537     0.0305 C.ar    
   7 C7            -3.7257     2.0823     0.0482 C.3     
   8 O8            -4.7306     1.3282     0.7560 O.3     
   9 C9            -3.6316     3.3658     0.9073 C.3     
  10 C10           -4.1228     2.8923     2.2621 C.2     
  11 N11           -4.7174     1.7576     2.1030 N.2     
  12 C12           -3.9506     3.6064     3.5424 C.ar    
  13 C13           -4.4547     3.0552     4.7232 C.ar    
  14 C14           -3.2784     4.8310     3.5744 C.ar    
  15 C15           -3.1178     5.4969     4.7683 C.ar    
  16 C16           -3.6266     4.9482     5.9482 C.ar    
  17 C17           -4.2941     3.7211     5.9170 C.ar    
  18 C18           -3.4538     5.6627     7.2297 C.2     
  19 O19           -2.8690     6.7280     7.2575 O.2     
  20 N20           -3.9445     5.1334     8.3679 N.am    
  21 C21           -4.1855     2.4070    -1.3745 C.3     
  22 F22           -4.3278     1.2200    -2.1010 F       
  23 F23           -5.4141     3.0746    -1.3265 F       
  24 F24           -3.2351     3.2236    -1.9968 F       
  25 Cl25           1.5169    -0.8519    -0.0175 Cl      
  26 C26           -3.7829     5.8016     9.5663 C.2     
  27 N27           -3.1619     6.9330     9.5959 N.2     
  28 O28           -2.9963     7.6178    10.8241 O.3     
  29 C29           -2.2913     8.8555    10.7090 C.3     
  30 C30            1.2779     2.1506     0.0014 C.3     
  31 F31            1.0035     3.5224     0.0114 F       
  32 F32            2.0270     1.8166     1.1348 F       
  33 F33            2.0051     1.8289    -1.1496 F       
  34 C34           -1.1673    -2.2184     0.0007 C.3     
  35 F35           -2.4801    -2.7018     0.0107 F       
  36 F36           -0.5129    -2.6695    -1.1505 F       
  37 F37           -0.4908    -2.6826     1.1339 F       
  38 H38           -3.3208    -0.5881     0.0301 H       
  39 H39           -1.2377     3.1336     0.0364 H       
  40 H40           -2.6009     3.7149     0.9698 H       
  41 H41           -4.2820     4.1454     0.5107 H       
  42 H42           -4.9707     2.1067     4.6991 H       
  43 H43           -2.8845     5.2548     2.6625 H       
  44 H44           -2.5983     6.4434     4.7931 H       
  45 H45           -4.6876     3.2972     6.8291 H       
  46 H46           -4.4112     4.2833     8.3457 H       
  47 H47           -4.1762     5.3774    10.4783 H       
  48 H48           -1.2951     8.6702    10.3072 H       
  49 H49           -2.8348     9.5223    10.0397 H       
  50 H50           -2.2062     9.3179    11.6924 H       
@<TRIPOS>BOND
   1    1    2 ar
   2    1   30 1
   3    1    6 ar
   4    2    3 ar
   5    2   25 1
   6    3    4 ar
   7    3   34 1
   8    4    5 ar
   9    4   38 1
  10    5    6 ar
  11    5    7 1
  12    6   39 1
  13    7    8 1
  14    7    9 1
  15    7   21 1
  16    8   11 1
  17    9   10 1
  18    9   40 1
  19    9   41 1
  20   10   11 2
  21   10   12 1
  22   12   13 ar
  23   12   14 ar
  24   13   17 ar
  25   13   42 1
  26   14   15 ar
  27   14   43 1
  28   15   16 ar
  29   15   44 1
  30   16   17 ar
  31   16   18 1
  32   17   45 1
  33   18   19 2
  34   18   20 am
  35   20   26 1
  36   20   46 1
  37   21   22 1
  38   21   23 1
  39   21   24 1
  40   26   27 2
  41   26   47 1
  42   27   28 1
  43   28   29 1
  44   29   48 1
  45   29   49 1
  46   29   50 1
  47   30   31 1
  48   30   32 1
  49   30   33 1
  50   34   35 1
  51   34   36 1
  52   34   37 1

#	End of record

