#	Name: ASD01148323
#	Creating user name:	WinNT
#	Creation time:	15. 06. 2019 19:02

#	Modifying user name:	WinNT
#	Modification time:	15. 06. 2019 19:02

#	Program:	/corina/corina34_cracker 3.40 0067  02.08.2006

@<TRIPOS>MOLECULE
ASD01148323
  56   58    0    0    0
SMALL
NO_CHARGES


@<TRIPOS>ATOM
   1 C1            -0.0167     1.3793     0.0096 C.ar    
   2 C2             0.0021    -0.0041     0.0020 C.ar    
   3 C3            -1.1869    -0.7115     0.0095 C.ar    
   4 C4            -2.3926    -0.0360     0.0246 C.ar    
   5 C5            -2.4107     1.3463     0.0322 C.ar    
   6 C6            -1.2230     2.0537     0.0305 C.ar    
   7 C7            -3.7257     2.0823     0.0482 C.3     
   8 O8            -4.7306     1.3282     0.7560 O.3     
   9 C9            -3.6316     3.3658     0.9073 C.3     
  10 C10           -4.1229     2.8923     2.2621 C.2     
  11 N11           -4.7174     1.7576     2.1030 N.2     
  12 C12           -3.9502     3.6062     3.5425 C.ar    
  13 C13           -4.4544     3.0551     4.7233 C.ar    
  14 C14           -3.2777     4.8305     3.5747 C.ar    
  15 C15           -3.1168     5.4962     4.7688 C.ar    
  16 C16           -3.6260     4.9477     5.9483 C.ar    
  17 C17           -4.2933     3.7210     5.9172 C.ar    
  18 C18           -3.4527     5.6624     7.2304 C.2     
  19 O19           -2.8672     6.7273     7.2584 O.2     
  20 N20           -3.9439     5.1333     8.3685 N.am    
  21 C21           -4.1855     2.4070    -1.3745 C.3     
  22 F22           -4.3278     1.2200    -2.1010 F       
  23 F23           -5.4141     3.0746    -1.3265 F       
  24 F24           -3.2351     3.2236    -1.9968 F       
  25 Cl25           1.5169    -0.8519    -0.0175 Cl      
  26 C26           -3.7722     5.8416     9.6394 C.3     
  27 C27           -4.4074     5.0438    10.7489 C.2     
  28 N28           -4.3724     5.5041    12.0152 N.am    
  29 O29           -4.9501     3.9876    10.5024 O.2     
  30 C30           -4.9899     4.7286    13.0938 C.3     
  31 C31           -4.8105     5.4684    14.4210 C.3     
  32 F32           -5.4214     6.7244    14.3411 F       
  33 F33           -5.4002     4.7278    15.4511 F       
  34 F34           -3.4460     5.6294    14.6845 F       
  35 C35            1.2779     2.1506     0.0014 C.3     
  36 F36            1.0035     3.5224     0.0114 F       
  37 F37            2.0270     1.8166     1.1348 F       
  38 F38            2.0051     1.8289    -1.1496 F       
  39 C39           -1.1673    -2.2184     0.0007 C.3     
  40 F40           -2.4801    -2.7018     0.0107 F       
  41 F41           -0.5129    -2.6695    -1.1505 F       
  42 F42           -0.4908    -2.6826     1.1339 F       
  43 H43           -3.3208    -0.5881     0.0301 H       
  44 H44           -1.2377     3.1336     0.0364 H       
  45 H45           -2.6009     3.7149     0.9698 H       
  46 H46           -4.2820     4.1454     0.5107 H       
  47 H47           -4.9707     2.1068     4.6992 H       
  48 H48           -2.8837     5.2544     2.6628 H       
  49 H49           -2.5967     6.4423     4.7937 H       
  50 H50           -4.6869     3.2971     6.8293 H       
  51 H51           -4.4111     4.2835     8.3462 H       
  52 H52           -2.7091     5.9671     9.8446 H       
  53 H53           -4.2482     6.8202     9.5770 H       
  54 H54           -3.9384     6.3489    12.2123 H       
  55 H55           -6.0530     4.6032    12.8885 H       
  56 H56           -4.5139     3.7500    13.1561 H       
@<TRIPOS>BOND
   1    1    2 ar
   2    1   35 1
   3    1    6 ar
   4    2    3 ar
   5    2   25 1
   6    3    4 ar
   7    3   39 1
   8    4    5 ar
   9    4   43 1
  10    5    6 ar
  11    5    7 1
  12    6   44 1
  13    7    8 1
  14    7    9 1
  15    7   21 1
  16    8   11 1
  17    9   10 1
  18    9   45 1
  19    9   46 1
  20   10   11 2
  21   10   12 1
  22   12   13 ar
  23   12   14 ar
  24   13   17 ar
  25   13   47 1
  26   14   15 ar
  27   14   48 1
  28   15   16 ar
  29   15   49 1
  30   16   17 ar
  31   16   18 1
  32   17   50 1
  33   18   19 2
  34   18   20 am
  35   20   26 1
  36   20   51 1
  37   21   22 1
  38   21   23 1
  39   21   24 1
  40   26   27 1
  41   26   52 1
  42   26   53 1
  43   27   29 2
  44   27   28 am
  45   28   30 1
  46   28   54 1
  47   30   31 1
  48   30   55 1
  49   30   56 1
  50   31   32 1
  51   31   33 1
  52   31   34 1
  53   35   36 1
  54   35   37 1
  55   35   38 1
  56   39   40 1
  57   39   41 1
  58   39   42 1

#	End of record

