#	Name: ASD01917540
#	Creating user name:	WinNT
#	Creation time:	15. 06. 2019 20:09

#	Modifying user name:	WinNT
#	Modification time:	15. 06. 2019 20:09

#	Program:	/corina/corina34_cracker 3.40 0067  02.08.2006

@<TRIPOS>MOLECULE
ASD01917540
  41   44    0    0    0
SMALL
NO_CHARGES


@<TRIPOS>ATOM
   1 C1            -0.0166     1.3745     0.0096 C.ar    
   2 C2             0.0021    -0.0041     0.0020 C.ar    
   3 N3             1.1432    -0.6667    -0.0124 N.ar    
   4 C4             2.3111    -0.0521    -0.0203 C.ar    
   5 C5             2.3873     1.3244    -0.0136 C.ar    
   6 C6             1.2004     2.0701     0.0017 C.ar    
   7 C7             1.2302     3.5017     0.0087 C.1     
   8 C8             1.2547     4.6755     0.0143 C.1     
   9 C9             1.2846     6.1071     0.0213 C.ar    
  10 C10            0.0931     6.8451     0.0420 C.ar    
  11 C11            2.5019     6.7926     0.0133 C.ar    
  12 N12            2.5285     8.1091     0.0197 N.ar    
  13 C13            1.4228     8.8286     0.0336 C.ar    
  14 C14            0.1774     8.2256     0.0478 C.ar    
  15 C15           -1.0742     9.0646     0.0700 C.3     
  16 C16           -1.0305    11.3521     0.0479 C.2     
  17 N17           -0.8594    10.2927     0.8505 N.am    
  18 C18           -1.4046     9.5813    -1.3436 C.3     
  19 O19           -1.3419    11.0310    -1.2128 O.3     
  20 C20           -2.7879     9.1473    -1.7549 C.ar    
  21 C21           -3.8865     9.9010    -1.3858 C.ar    
  22 C22           -2.9569     7.9989    -2.5057 C.ar    
  23 C23           -4.2249     7.6001    -2.8837 C.ar    
  24 C24           -5.3264     8.3512    -2.5099 C.ar    
  25 C25           -5.1556     9.5040    -1.7624 C.ar    
  26 O26           -0.9138    12.4995     0.4304 O.2     
  27 F27           -6.5665     7.9626    -2.8793 F       
  28 H28           -0.9544     1.9101     0.0170 H       
  29 H29           -0.9302    -0.5493     0.0084 H       
  30 H30            3.2198    -0.6357    -0.0317 H       
  31 H31            3.3465     1.8206    -0.0201 H       
  32 H32           -0.8660     6.3485     0.0527 H       
  33 H33            3.4287     6.2382     0.0023 H       
  34 H34            1.4908     9.9064     0.0384 H       
  35 H35           -1.9099     8.4930     0.4737 H       
  36 H36           -0.6313    10.3297     1.7925 H       
  37 H37           -0.6636     9.2300    -2.0617 H       
  38 H38           -3.7530    10.8002    -0.8027 H       
  39 H39           -2.0975     7.4132    -2.7971 H       
  40 H40           -4.3566     6.7033    -3.4709 H       
  41 H41           -6.0137    10.0928    -1.4736 H       
@<TRIPOS>BOND
   1    1    2 ar
   2    1    6 ar
   3    1   28 1
   4    2    3 ar
   5    2   29 1
   6    3    4 ar
   7    4    5 ar
   8    4   30 1
   9    5    6 ar
  10    5   31 1
  11    6    7 1
  12    7    8 3
  13    8    9 1
  14    9   11 ar
  15    9   10 ar
  16   10   14 ar
  17   10   32 1
  18   11   12 ar
  19   11   33 1
  20   12   13 ar
  21   13   14 ar
  22   13   34 1
  23   14   15 1
  24   15   18 1
  25   15   17 1
  26   15   35 1
  27   16   17 am
  28   16   19 1
  29   16   26 2
  30   17   36 1
  31   18   19 1
  32   18   20 1
  33   18   37 1
  34   20   22 ar
  35   20   21 ar
  36   21   25 ar
  37   21   38 1
  38   22   23 ar
  39   22   39 1
  40   23   24 ar
  41   23   40 1
  42   24   25 ar
  43   24   27 1
  44   25   41 1

#	End of record

