#	Name: ASD00071004
#	Creating user name:	WinNT
#	Creation time:	15. 06. 2019 18:30

#	Modifying user name:	WinNT
#	Modification time:	15. 06. 2019 18:30

#	Program:	/corina/corina34_cracker 3.40 0067  02.08.2006

@<TRIPOS>MOLECULE
ASD00071004
  39   41    0    0    0
SMALL
NO_CHARGES


@<TRIPOS>ATOM
   1 C1            -0.0173     1.4248     0.0099 C.3     
   2 O2             0.0021    -0.0041     0.0020 O.3     
   3 C3             1.3965     1.9464    -0.0008 C.ar    
   4 C4             1.7623     2.9782     0.8498 C.ar    
   5 C5             3.0649     3.4568     0.8380 C.ar    
   6 C6             3.9968     2.9059    -0.0206 C.ar    
   7 C7             3.6347     1.8774    -0.8693 C.ar    
   8 C8             2.3349     1.3914    -0.8572 C.ar    
   9 O9             1.9807     0.3762    -1.6883 O.3     
  10 C10            2.9988    -0.1474    -2.5434 C.3     
  11 O11            0.8461     3.5208     1.6941 O.3     
  12 C12            1.2929     4.5805     2.5422 C.3     
  13 N13           -1.9948     3.6476    -2.2414 N.ar    
  14 C14           -1.3520     3.1806    -1.1974 C.ar    
  15 C15           -0.7462     1.9240    -1.2110 C.ar    
  16 C16           -0.8139     1.1473    -2.3315 C.ar    
  17 C17           -1.5044     1.6525    -3.4500 C.ar    
  18 C18           -1.6156     0.9104    -4.6364 C.ar    
  19 C19           -2.2921     1.4332    -5.6964 C.ar    
  20 C20           -2.8757     2.6957    -5.6194 C.ar    
  21 C21           -2.7867     3.4425    -4.4848 C.ar    
  22 C22           -2.0972     2.9370    -3.3694 C.ar    
  23 Cl23          -1.2533     4.1513     0.2384 Cl      
  24 H24           -0.5275     1.7763     0.9067 H       
  25 H25            0.4417    -0.3872    -0.7693 H       
  26 H26            3.3503     4.2608     1.5002 H       
  27 H27            5.0100     3.2800    -0.0285 H       
  28 H28            4.3649     1.4484    -1.5395 H       
  29 H29            2.5840    -0.9503    -3.1528 H       
  30 H30            3.3717     0.6453    -3.1920 H       
  31 H31            3.8173    -0.5366    -1.9379 H       
  32 H32            1.6537     5.4076     1.9308 H       
  33 H33            0.4652     4.9221     3.1637 H       
  34 H34            2.1007     4.2201     3.1791 H       
  35 H35           -0.3504     0.1723    -2.3596 H       
  36 H36           -1.1671    -0.0694    -4.7081 H       
  37 H37           -2.3768     0.8617    -6.6089 H       
  38 H38           -3.4069     3.0885    -6.4738 H       
  39 H39           -3.2443     4.4199    -4.4419 H       
@<TRIPOS>BOND
   1    1    2 1
   2    1    3 1
   3    1   15 1
   4    1   24 1
   5    2   25 1
   6    3    4 ar
   7    3    8 ar
   8    4    5 ar
   9    4   11 1
  10    5    6 ar
  11    5   26 1
  12    6    7 ar
  13    6   27 1
  14    7    8 ar
  15    7   28 1
  16    8    9 1
  17    9   10 1
  18   10   29 1
  19   10   30 1
  20   10   31 1
  21   11   12 1
  22   12   32 1
  23   12   33 1
  24   12   34 1
  25   13   14 ar
  26   13   22 ar
  27   14   15 ar
  28   14   23 1
  29   15   16 ar
  30   16   17 ar
  31   16   35 1
  32   17   18 ar
  33   17   22 ar
  34   18   19 ar
  35   18   36 1
  36   19   20 ar
  37   19   37 1
  38   20   21 ar
  39   20   38 1
  40   21   22 ar
  41   21   39 1

#	End of record

