#	Name: ASD01814074
#	Creating user name:	WinNT
#	Creation time:	15. 06. 2019 19:31

#	Modifying user name:	WinNT
#	Modification time:	15. 06. 2019 19:31

#	Program:	/corina/corina34_cracker 3.40 0067  02.08.2006

@<TRIPOS>MOLECULE
ASD01814074
  47   51    0    0    0
SMALL
NO_CHARGES


@<TRIPOS>ATOM
   1 C1             1.1548     2.2509    -0.5133 C.ar    
   2 C2             0.7786     0.9156    -0.4982 C.ar    
   3 C3             1.7214    -0.0801    -0.3469 C.ar    
   4 C4             3.0684     0.2526    -0.2070 C.ar    
   5 C5             3.4448     1.6060    -0.2229 C.ar    
   6 C6             2.4798     2.6014    -0.3767 C.ar    
   7 N7             4.0209    -0.7324    -0.0539 N.pl3   
   8 C8             5.3253    -0.4648     0.0853 C.2     
   9 C9             5.8155     0.8257     0.0857 C.2     
  10 C10            4.8726     1.9444    -0.0741 C.2     
  11 O11            5.2550     3.1013    -0.0806 O.2     
  12 C12            7.2549     1.0783     0.2422 C.2     
  13 O13            7.7214     2.3430     0.2411 O.3     
  14 O14            8.0248     0.1466     0.3727 O.2     
  15 C15            3.5871    -2.1316    -0.0427 C.3     
  16 C16            3.4445    -2.6248    -1.4595 C.ar    
  17 C17            4.5266    -2.5716    -2.3222 C.ar    
  18 C18            4.3973    -3.0235    -3.6235 C.ar    
  19 C19            3.1821    -3.5304    -4.0624 C.ar    
  20 C20            2.0996    -3.5824    -3.1939 C.ar    
  21 C21            2.2352    -3.1349    -1.8944 C.ar    
  22 N22            3.0476    -3.9885    -5.3797 N.pl3   
  23 F23            1.3400    -1.3761    -0.3336 F       
  24 C24            3.4116    -3.3190    -6.5094 C.2     
  25 N25            3.1450    -4.0385    -7.5603 N.2     
  26 C26            2.5919    -5.2187    -7.1787 C.ar    
  27 C27            2.5264    -5.2063    -5.7751 C.ar    
  28 F28            5.7087    -2.0778    -1.8931 F       
  29 C29            2.1270    -6.3353    -7.8785 C.ar    
  30 C30            1.6096    -7.3996    -7.1959 C.ar    
  31 C31            1.5393    -7.3852    -5.8100 C.ar    
  32 C32            1.9984    -6.2971    -5.0985 C.ar    
  33 H33            0.4057     3.0189    -0.6372 H       
  34 H34           -0.2634     0.6529    -0.6058 H       
  35 H35            2.7702     3.6416    -0.3892 H       
  36 H36            6.0171    -1.2860     0.2014 H       
  37 H37            8.6755     2.4591     0.3471 H       
  38 H38            4.3273    -2.7373     0.4801 H       
  39 H39            2.6272    -2.2103     0.4677 H       
  40 H40            5.2406    -2.9816    -4.2968 H       
  41 H41            1.1532    -3.9765    -3.5335 H       
  42 H42            1.3932    -3.1758    -1.2193 H       
  43 H43            3.8560    -2.3349    -6.5296 H       
  44 H44            2.1762    -6.3568    -8.9572 H       
  45 H45            1.2513    -8.2607    -7.7403 H       
  46 H46            1.1272    -8.2343    -5.2850 H       
  47 H47            1.9414    -6.2908    -4.0200 H       
@<TRIPOS>BOND
   1    1    2 ar
   2    1    6 ar
   3    1   33 1
   4    2    3 ar
   5    2   34 1
   6    3    4 ar
   7    3   23 1
   8    4    5 ar
   9    4    7 1
  10    5    6 ar
  11    5   10 1
  12    6   35 1
  13    7    8 1
  14    7   15 1
  15    8    9 2
  16    8   36 1
  17    9   10 1
  18    9   12 1
  19   10   11 2
  20   12   13 1
  21   12   14 2
  22   13   37 1
  23   15   16 1
  24   15   38 1
  25   15   39 1
  26   16   17 ar
  27   16   21 ar
  28   17   18 ar
  29   17   28 1
  30   18   19 ar
  31   18   40 1
  32   19   20 ar
  33   19   22 1
  34   20   21 ar
  35   20   41 1
  36   21   42 1
  37   22   24 1
  38   22   27 1
  39   24   25 2
  40   24   43 1
  41   25   26 1
  42   26   27 ar
  43   26   29 ar
  44   27   32 ar
  45   29   30 ar
  46   29   44 1
  47   30   31 ar
  48   30   45 1
  49   31   32 ar
  50   31   46 1
  51   32   47 1

#	End of record

