#	Name: ASD05740113
#	Creating user name:	WinNT
#	Creation time:	15. 06. 2019 21:02

#	Modifying user name:	WinNT
#	Modification time:	15. 06. 2019 21:02

#	Program:	/corina/corina34_cracker 3.40 0067  02.08.2006

@<TRIPOS>MOLECULE
ASD05740113
  48   51    0    0    0
SMALL
NO_CHARGES


@<TRIPOS>ATOM
   1 N1            -0.0159     1.3184     0.0093 N.ar    
   2 C2            -3.8767     0.9902     2.1771 C.2     
   3 C3            -3.6031     0.3315     3.4678 C.2     
   4 C4            -3.0800     0.5986     1.0139 C.2     
   5 C5            -2.1279    -0.3538     1.1839 C.2     
   6 C6            -1.9168    -0.9451     2.4455 C.2     
   7 O7            -2.6301    -0.6080     3.5324 O.3     
   8 C8            -1.2872    -0.7843     0.0096 C.3     
   9 C9             0.0021    -0.0041     0.0020 C.ar    
  10 C10            1.2212    -0.6637    -0.0132 C.ar    
  11 O11           -1.0525    -1.7957     2.5547 O.2     
  12 C12            1.1137     2.0111     0.0022 C.ar    
  13 N13            2.2949     1.4115    -0.0123 N.ar    
  14 C14            2.3831     0.0915    -0.0202 C.ar    
  15 N15            1.0582     3.3941     0.0097 N.am    
  16 S16            2.4054     4.2789    -0.3701 S.o2    
  17 O17            2.0194     5.6450    -0.3067 O.2     
  18 O18            3.4714     3.7361     0.3968 O.2     
  19 C19           -4.4683     0.8752     4.3467 C.2     
  20 O20           -5.2242     1.7868     3.7083 O.3     
  21 C21           -4.8893     1.8663     2.4111 C.2     
  22 O22           -4.5621     0.5545     5.6640 O.3     
  23 C23           -5.4907     1.1991     6.4112 C.2     
  24 N24           -5.6953     0.9996     7.6748 N.2     
  25 S25           -6.5579     2.3994     5.8251 S.3     
  26 C26           -7.2689     2.5650     7.4284 C.2     
  27 C27           -6.6441     1.7175     8.2475 C.2     
  28 N28            2.7650     3.9678    -1.9564 N.am    
  29 C29            1.8355     4.3772    -3.0121 C.3     
  30 C30           -3.3104     1.2333    -0.3333 C.3     
  31 C31           -4.4419     0.4996    -1.0560 C.3     
  32 H32           -1.0672    -1.8488     0.0911 H       
  33 H33           -1.8316    -0.5955    -0.9156 H       
  34 H34            1.2646    -1.7429    -0.0190 H       
  35 H35            3.3490    -0.3916    -0.0317 H       
  36 H36            0.2301     3.8450     0.2375 H       
  37 H37           -5.3424     2.5193     1.6798 H       
  38 H38           -8.0684     3.2378     7.7014 H       
  39 H39           -6.8956     1.6243     9.2937 H       
  40 H40            3.5911     3.5145    -2.1866 H       
  41 H41            2.2391     4.0901    -3.9831 H       
  42 H42            0.8736     3.8877    -2.8593 H       
  43 H43            1.7021     5.4586    -2.9795 H       
  44 H44           -3.5831     2.2802    -0.1999 H       
  45 H45           -2.3982     1.1683    -0.9264 H       
  46 H46           -4.6086     0.9587    -2.0305 H       
  47 H47           -4.1692    -0.5472    -1.1894 H       
  48 H48           -5.3542     0.5647    -0.4629 H       
@<TRIPOS>BOND
   1    1    9 ar
   2    1   12 ar
   3    2    3 1
   4    2    4 1
   5    2   21 2
   6    3   19 2
   7    3    7 1
   8    4    5 2
   9    4   30 1
  10    5    6 1
  11    5    8 1
  12    6    7 1
  13    6   11 2
  14    8    9 1
  15    8   32 1
  16    8   33 1
  17    9   10 ar
  18   10   14 ar
  19   10   34 1
  20   12   13 ar
  21   12   15 1
  22   13   14 ar
  23   14   35 1
  24   15   16 am
  25   15   36 1
  26   16   17 2
  27   16   18 2
  28   16   28 am
  29   19   20 1
  30   19   22 1
  31   20   21 1
  32   21   37 1
  33   22   23 1
  34   23   24 2
  35   23   25 1
  36   24   27 1
  37   25   26 1
  38   26   27 2
  39   26   38 1
  40   27   39 1
  41   28   29 1
  42   28   40 1
  43   29   41 1
  44   29   42 1
  45   29   43 1
  46   30   31 1
  47   30   44 1
  48   30   45 1
  49   31   46 1
  50   31   47 1
  51   31   48 1

#	End of record

