#	Name: ASD00842179
#	Creating user name:	WinNT
#	Creation time:	15. 06. 2019 18:43

#	Modifying user name:	WinNT
#	Modification time:	15. 06. 2019 18:43

#	Program:	/corina/corina34_cracker 3.40 0067  02.08.2006

@<TRIPOS>MOLECULE
ASD00842179
  95  100    0    0    0
SMALL
NO_CHARGES


@<TRIPOS>ATOM
   1 F1             6.0002    -1.6942    -2.1758 F       
   2 C2             0.8838     1.5137    -0.7008 C.ar    
   3 C3             1.2174     0.1748    -0.8434 C.ar    
   4 C4             1.1994    -0.6637     0.2619 C.ar    
   5 C5             0.8495    -0.1637     1.5010 C.ar    
   6 C6             0.5169     1.1713     1.6404 C.ar    
   7 C7             0.5346     2.0090     0.5408 C.ar    
   8 C8             1.5607    -2.1189     0.1105 C.3     
   9 C9             1.3471    -2.8567     1.4148 C.2     
  10 C10            0.7382    -2.7602    -1.0089 C.3     
  11 C11           -0.7284    -2.5308    -0.7494 C.2     
  12 N12           -1.6506    -3.0670    -1.5731 N.am    
  13 O13           -1.0789    -1.8635     0.2008 O.2     
  14 C14           -3.0766    -2.7564    -1.4038 C.3     
  15 C15           -3.8580    -4.0697    -1.2972 C.3     
  16 C16           -3.5454    -4.9448    -2.5132 C.3     
  17 C17           -2.0508    -5.2726    -2.5372 C.3     
  18 C18           -1.2483    -3.9685    -2.6613 C.3     
  19 N19           -4.3186    -6.1911    -2.4310 N.3     
  20 C20           -4.1351    -7.0054    -3.6405 C.3     
  21 C21           -4.8909    -8.3269    -3.4820 C.3     
  22 N22           -6.3150    -8.0488    -3.2489 N.3     
  23 C23           -6.4985    -7.2345    -2.0394 C.3     
  24 C24           -5.7427    -5.9130    -2.1978 C.3     
  25 C25           -7.0882    -9.2951    -3.1667 C.3     
  26 O26            0.2952    -2.9866     2.0045 O.2     
  27 N27            2.5405    -3.3411     1.7967 N.am    
  28 C28            3.0402    -2.2716    -0.1614 C.ar    
  29 C29            3.5563    -3.0161     0.8944 C.ar    
  30 C30            3.8511    -1.8303    -1.1837 C.ar    
  31 C31            5.2032    -2.1253    -1.1737 C.ar    
  32 C32            5.7397    -2.8727    -0.1202 C.ar    
  33 C33            4.9132    -3.3167     0.9115 C.ar    
  34 C34            2.5531    -5.9191     2.7600 C.ar    
  35 C35            1.3076    -6.3729     2.3514 C.ar    
  36 C36            3.6171    -6.7975     2.8334 C.ar    
  37 C37            3.4412    -8.1275     2.4996 C.ar    
  38 C38            2.2005    -8.5823     2.0920 C.ar    
  39 C39            1.1336    -7.7083     2.0174 C.ar    
  40 H40            2.0657    -9.6218     1.8317 H       
  41 O41            0.2594    -5.5110     2.2789 O.3     
  42 C42           -0.9936    -6.0479     1.8503 C.3     
  43 C43           -2.0451    -4.9366     1.8313 C.3     
  44 C44           -8.5051    -8.9851    -2.6799 C.3     
  45 C45            7.1377    -3.1826    -0.1015 C.1     
  46 N46            8.2466    -3.4285    -0.0866 N.1     
  47 O47            1.5608    -0.3148    -2.0637 O.3     
  48 C48            1.9726    -0.1135    -4.4366 C.3     
  49 C49            1.4493     0.5764    -3.1752 C.3     
  50 S50            2.7799    -4.2225     3.1780 S.o2    
  51 O51            4.1517    -4.0727     3.5170 O.2     
  52 O52            1.7196    -3.8815     4.0605 O.2     
  53 H53            0.9014     2.1694    -1.5588 H       
  54 H54            0.8353    -0.8160     2.3616 H       
  55 H55            0.2430     1.5602     2.6100 H       
  56 H56            0.2744     3.0512     0.6523 H       
  57 H57            1.0126    -2.3121    -1.9639 H       
  58 H58            0.9386    -3.8312    -1.0392 H       
  59 H59           -3.2179    -2.1723    -0.4944 H       
  60 H60           -3.4316    -2.1888    -2.2639 H       
  61 H61           -3.5662    -4.5939    -0.3871 H       
  62 H62           -4.9265    -3.8560    -1.2678 H       
  63 H63           -3.8146    -4.4101    -3.4241 H       
  64 H64           -1.7760    -5.7855    -1.6155 H       
  65 H65           -1.8329    -5.9151    -3.3904 H       
  66 H66           -1.4554    -3.5023    -3.6246 H       
  67 H67           -0.1833    -4.1856    -2.5795 H       
  68 H68           -4.5231    -6.4659    -4.5044 H       
  69 H69           -3.0740    -7.2085    -3.7846 H       
  70 H70           -4.7801    -8.9203    -4.3896 H       
  71 H71           -4.4847    -8.8788    -2.6344 H       
  72 H72           -7.5596    -7.0314    -1.8953 H       
  73 H73           -6.1105    -7.7740    -1.1754 H       
  74 H74           -5.8535    -5.3197    -1.2903 H       
  75 H75           -6.1489    -5.3611    -3.0454 H       
  76 H76           -7.1358    -9.7588    -4.1520 H       
  77 H77           -6.6048    -9.9771    -2.4671 H       
  78 H78            3.4310    -1.2536    -1.9945 H       
  79 H79            5.3278    -3.8938     1.7247 H       
  80 H80            4.5870    -6.4448     3.1514 H       
  81 H81            4.2743    -8.8124     2.5569 H       
  82 H82            0.1646    -8.0641     1.6997 H       
  83 H83           -0.8870    -6.4643     0.8486 H       
  84 H84           -1.3070    -6.8329     2.5386 H       
  85 H85           -2.1517    -4.5202     2.8330 H       
  86 H86           -1.7317    -4.1517     1.1431 H       
  87 H87           -3.0008    -5.3462     1.5044 H       
  88 H88           -8.4575    -8.5214    -1.6946 H       
  89 H89           -8.9885    -8.3031    -3.3795 H       
  90 H90           -9.0788    -9.9099    -2.6189 H       
  91 H91            1.9692     0.5941    -5.2657 H       
  92 H92            2.9896    -0.4651    -4.2631 H       
  93 H93            1.3317    -0.9610    -4.6797 H       
  94 H94            0.4039     0.8501    -3.3179 H       
  95 H95            2.0367     1.4739    -2.9817 H       
@<TRIPOS>BOND
   1    1   31 1
   2    2    3 ar
   3    2    7 ar
   4    2   53 1
   5    3    4 ar
   6    3   47 1
   7    4    5 ar
   8    4    8 1
   9    5    6 ar
  10    5   54 1
  11    6    7 ar
  12    6   55 1
  13    7   56 1
  14    8    9 1
  15    8   10 1
  16    8   28 1
  17    9   26 2
  18    9   27 am
  19   10   11 1
  20   10   57 1
  21   10   58 1
  22   11   12 am
  23   11   13 2
  24   12   14 1
  25   12   18 1
  26   14   15 1
  27   14   59 1
  28   14   60 1
  29   15   16 1
  30   15   61 1
  31   15   62 1
  32   16   17 1
  33   16   19 1
  34   16   63 1
  35   17   18 1
  36   17   64 1
  37   17   65 1
  38   18   66 1
  39   18   67 1
  40   19   20 1
  41   19   24 1
  42   20   21 1
  43   20   68 1
  44   20   69 1
  45   21   22 1
  46   21   70 1
  47   21   71 1
  48   22   23 1
  49   22   25 1
  50   23   24 1
  51   23   72 1
  52   23   73 1
  53   24   74 1
  54   24   75 1
  55   25   44 1
  56   25   76 1
  57   25   77 1
  58   27   50 am
  59   27   29 1
  60   28   29 ar
  61   28   30 ar
  62   29   33 ar
  63   30   31 ar
  64   30   78 1
  65   31   32 ar
  66   32   33 ar
  67   32   45 1
  68   33   79 1
  69   34   35 ar
  70   34   36 ar
  71   34   50 1
  72   35   41 1
  73   35   39 ar
  74   36   37 ar
  75   36   80 1
  76   37   38 ar
  77   37   81 1
  78   38   39 ar
  79   38   40 1
  80   39   82 1
  81   41   42 1
  82   42   43 1
  83   42   83 1
  84   42   84 1
  85   43   85 1
  86   43   86 1
  87   43   87 1
  88   44   88 1
  89   44   89 1
  90   44   90 1
  91   45   46 3
  92   47   49 1
  93   48   49 1
  94   48   91 1
  95   48   92 1
  96   48   93 1
  97   49   94 1
  98   49   95 1
  99   50   51 2
 100   50   52 2

#	End of record

