#	Name: ASD04590091
#	Creating user name:	WinNT
#	Creation time:	15. 06. 2019 20:50

#	Modifying user name:	WinNT
#	Modification time:	15. 06. 2019 20:50

#	Program:	/corina/corina34_cracker 3.40 0067  02.08.2006

@<TRIPOS>MOLECULE
ASD04590091
  57   59    0    0    0
SMALL
NO_CHARGES


@<TRIPOS>ATOM
   1 C1            -0.0172     1.4148     0.0098 C.2     
   2 C2             0.0021    -0.0041     0.0020 C.2     
   3 C3             1.2886     1.7938    -0.0006 C.2     
   4 N4             2.0329     0.6583    -0.0138 N.pl3   
   5 N5             1.2682    -0.3737    -0.0121 N.2     
   6 N6            -1.1445     2.2495     0.0200 N.am    
   7 C7            -0.9915     3.5885     0.0265 C.2     
   8 C8            -1.1720    -0.8970     0.0089 C.2     
   9 N9            -1.0019    -2.2339     0.0000 N.am    
  10 C10           -2.1680    -3.1207     0.0068 C.3     
  11 C11           -1.7883    -4.4670    -0.6140 C.3     
  12 C12           -3.0187    -5.3794    -0.6368 C.3     
  13 N13           -3.5620    -5.4747     0.7249 N.am    
  14 C14           -3.8767    -4.2352     1.4483 C.3     
  15 C15           -2.6367    -3.3356     1.4477 C.3     
  16 O16            0.1237     4.0730     0.0236 O.2     
  17 C17           -2.1783     4.4672     0.0372 C.ar    
  18 C18           -2.7487     4.8917    -1.1659 C.ar    
  19 C19           -2.7401     4.8739     1.2505 C.ar    
  20 C20           -3.8502     5.6952     1.2523 C.ar    
  21 C21           -4.4063     6.1151     0.0573 C.ar    
  22 C22           -3.8587     5.7129    -1.1477 C.ar    
  23 O23           -2.2933    -0.4268     0.0225 O.2     
  24 Cl24          -2.0633     4.3883    -2.6794 Cl      
  25 Cl25          -2.0447     4.3473     2.7514 Cl      
  26 C26           -3.7683    -6.6763     1.2995 C.2     
  27 O27           -4.2668    -6.7488     2.5480 O.3     
  28 O28           -3.5044    -7.6942     0.6906 O.2     
  29 C29           -4.4629    -8.0760     3.1035 C.3     
  30 C30           -3.1222    -8.8115     3.1527 C.3     
  31 C31           -5.0320    -7.9576     4.5188 C.3     
  32 C32           -5.4413    -8.8574     2.2242 C.3     
  33 H33            1.6630     2.8069     0.0009 H       
  34 H34            3.0025     0.6304    -0.0235 H       
  35 H35           -2.0342     1.8629     0.0223 H       
  36 H36           -0.1074    -2.6090    -0.0109 H       
  37 H37           -2.9723    -2.6675    -0.5727 H       
  38 H38           -1.4325    -4.3106    -1.6324 H       
  39 H39           -1.0013    -4.9323    -0.0206 H       
  40 H40           -3.7727    -4.9595    -1.3026 H       
  41 H41           -2.7316    -6.3713    -0.9859 H       
  42 H42           -4.7007    -3.7220     0.9526 H       
  43 H43           -4.1558    -4.4721     2.4750 H       
  44 H44           -1.8417    -3.8115     2.0218 H       
  45 H45           -2.8848    -2.3739     1.8969 H       
  46 H46           -4.2855     6.0103     2.1891 H       
  47 H47           -5.2749     6.7569     0.0651 H       
  48 H48           -4.2984     6.0449    -2.0766 H       
  49 H49           -2.4252    -8.2548     3.7791 H       
  50 H50           -3.2695    -9.8078     3.5697 H       
  51 H51           -2.7169    -8.8959     2.1444 H       
  52 H52           -5.9871    -7.4336     4.4837 H       
  53 H53           -5.1792    -8.9538     4.9357 H       
  54 H54           -4.3350    -7.4009     5.1452 H       
  55 H55           -5.0359    -8.9417     1.2159 H       
  56 H56           -5.5885    -9.8536     2.6411 H       
  57 H57           -6.3965    -8.3334     2.1891 H       
@<TRIPOS>BOND
   1    1    2 1
   2    1    3 2
   3    1    6 1
   4    2    8 1
   5    2    5 2
   6    3    4 1
   7    3   33 1
   8    4    5 1
   9    4   34 1
  10    6    7 am
  11    6   35 1
  12    7   16 2
  13    7   17 1
  14    8    9 am
  15    8   23 2
  16    9   10 1
  17    9   36 1
  18   10   11 1
  19   10   15 1
  20   10   37 1
  21   11   12 1
  22   11   38 1
  23   11   39 1
  24   12   13 1
  25   12   40 1
  26   12   41 1
  27   13   14 1
  28   13   26 am
  29   14   15 1
  30   14   42 1
  31   14   43 1
  32   15   44 1
  33   15   45 1
  34   17   18 ar
  35   17   19 ar
  36   18   24 1
  37   18   22 ar
  38   19   20 ar
  39   19   25 1
  40   20   21 ar
  41   20   46 1
  42   21   22 ar
  43   21   47 1
  44   22   48 1
  45   26   27 1
  46   26   28 2
  47   27   29 1
  48   29   30 1
  49   29   31 1
  50   29   32 1
  51   30   49 1
  52   30   50 1
  53   30   51 1
  54   31   52 1
  55   31   53 1
  56   31   54 1
  57   32   55 1
  58   32   56 1
  59   32   57 1

#	End of record

