#	Name: ASD01913224
#	Creating user name:	WinNT
#	Creation time:	15. 06. 2019 20:01

#	Modifying user name:	WinNT
#	Modification time:	15. 06. 2019 20:01

#	Program:	/corina/corina34_cracker 3.40 0067  02.08.2006

@<TRIPOS>MOLECULE
ASD01913224
  43   46    0    0    0
SMALL
NO_CHARGES


@<TRIPOS>ATOM
   1 N1             1.0526     0.8325     2.1847 N.ar    
   2 C2             1.4405    -0.3260     2.6723 C.ar    
   3 C3             2.7713    -0.6974     2.6272 C.ar    
   4 C4             3.6897     0.1723     2.0659 C.ar    
   5 C5             3.2419     1.3906     1.5616 C.ar    
   6 C6             4.2628     2.3245     0.9705 C.3     
   7 C7             3.5960     3.3467     0.0507 C.3     
   8 N8             2.4281     3.8975     0.7578 N.am    
   9 C9             1.3346     2.9738     1.0772 C.3     
  10 C10            1.9004     1.6893     1.6315 C.ar    
  11 C11            2.3660     5.2001     1.0981 C.2     
  12 O12            3.3282     5.9214     0.9198 O.2     
  13 C13            1.1280     5.7517     1.6879 C.ar    
  14 C14            1.2017     6.7468     2.6605 C.ar    
  15 C15            0.0291     7.2622     3.2116 C.ar    
  16 C16           -1.2125     6.7768     2.7843 C.ar    
  17 C17           -1.2759     5.7895     1.8196 C.ar    
  18 C18           -0.1179     5.2802     1.2670 C.ar    
  19 C19            0.0949     8.2847     4.2120 C.1     
  20 C20            0.1487     9.1230     5.0322 C.1     
  21 C21            0.2144    10.1455     6.0326 C.ar    
  22 C22           -0.9651    10.6571     6.5803 C.ar    
  23 C23           -0.8841    11.6438     7.5457 C.ar    
  24 C24            0.3720    12.0898     7.9350 C.ar    
  25 C25            1.4992    11.5402     7.3521 C.ar    
  26 N26            1.3974    10.5975     6.4378 N.ar    
  27 Cl27          -2.6748     7.4158     3.4679 Cl      
  28 H28            0.7131    -0.9925     3.1118 H       
  29 H29            3.0890    -1.6504     3.0239 H       
  30 H30            4.7365    -0.0894     2.0199 H       
  31 H31            4.7779     2.8487     1.7754 H       
  32 H32            4.9883     1.7466     0.3980 H       
  33 H33            4.2982     4.1475    -0.1811 H       
  34 H34            3.2740     2.8597    -0.8697 H       
  35 H35            0.6787     3.4305     1.8182 H       
  36 H36            0.7652     2.7592     0.1728 H       
  37 H37            2.1626     7.1169     2.9862 H       
  38 H38           -2.2359     5.4175     1.4935 H       
  39 H39           -0.1752     4.5119     0.5102 H       
  40 H40           -1.9260    10.2874     6.2540 H       
  41 H41           -1.7783    12.0588     7.9870 H       
  42 H42            0.4679    12.8596     8.6864 H       
  43 H43            2.4768    11.8862     7.6535 H       
@<TRIPOS>BOND
   1    1    2 ar
   2    1   10 ar
   3    2    3 ar
   4    2   28 1
   5    3    4 ar
   6    3   29 1
   7    4    5 ar
   8    4   30 1
   9    5    6 1
  10    5   10 ar
  11    6    7 1
  12    6   31 1
  13    6   32 1
  14    7    8 1
  15    7   33 1
  16    7   34 1
  17    8    9 1
  18    8   11 am
  19    9   10 1
  20    9   35 1
  21    9   36 1
  22   11   12 2
  23   11   13 1
  24   13   14 ar
  25   13   18 ar
  26   14   15 ar
  27   14   37 1
  28   15   16 ar
  29   15   19 1
  30   16   17 ar
  31   16   27 1
  32   17   18 ar
  33   17   38 1
  34   18   39 1
  35   19   20 3
  36   20   21 1
  37   21   22 ar
  38   21   26 ar
  39   22   23 ar
  40   22   40 1
  41   23   24 ar
  42   23   41 1
  43   24   25 ar
  44   24   42 1
  45   25   26 ar
  46   25   43 1

#	End of record

