#	Name: ASD00731003
#	Creating user name:	WinNT
#	Creation time:	15. 06. 2019 18:37

#	Modifying user name:	WinNT
#	Modification time:	15. 06. 2019 18:37

#	Program:	/corina/corina34_cracker 3.40 0067  02.08.2006

@<TRIPOS>MOLECULE
ASD00731003
 315  315    0    0    0
SMALL
NO_CHARGES


@<TRIPOS>ATOM
   1 C1            -1.5662    -2.0457   -15.3807 C.2     
   2 O2            -1.8907    -3.2133   -15.4308 O.2     
   3 N3             0.4857    -2.7764   -16.4507 N.am    
   4 C4            -0.2287    -1.6115   -15.9226 C.3     
   5 C5            -4.6625    -0.3924   -14.3597 C.2     
   6 O6            -4.2919     0.6836   -14.7792 O.2     
   7 N7            -2.4041    -1.1358   -14.8455 N.am    
   8 C8            -3.7068    -1.5570   -14.3242 C.3     
   9 C9            -3.5465    -2.0414   -12.8818 C.3     
  10 O10           -3.1436    -0.9483   -12.0542 O.3     
  11 C11           -8.1981     0.1525   -13.4237 C.2     
  12 O12           -8.3611    -0.9896   -13.0495 O.2     
  13 N13           -5.9290    -0.5464   -13.9254 N.am    
  14 C14           -6.8581     0.5858   -13.9599 C.3     
  15 C15          -11.5971     1.4978   -13.4079 C.2     
  16 O16          -11.3064     2.3923   -14.1736 O.2     
  17 N17           -9.2155     1.0341   -13.3599 N.am    
  18 C18          -10.5182     0.6129   -12.8386 C.3     
  19 C19          -10.5179     0.7264   -11.3128 C.3     
  20 C20           -9.5085    -0.2637   -10.7281 C.3     
  21 C21           -9.5082    -0.1503    -9.2023 C.3     
  22 N22           -8.5417    -1.0983    -8.6423 N.pl3   
  23 C23           -8.3657    -1.1770    -7.2811 C.2     
  24 N24           -7.5058    -2.0205    -6.7829 N.2     
  25 N25           -9.0966    -0.3662    -6.4453 N.pl3   
  26 C26          -15.0653     2.2277   -12.5506 C.2     
  27 O27          -15.2768     1.2540   -11.8591 O.2     
  28 N28          -12.8849     1.2953   -13.0660 N.am    
  29 C29          -13.9205     2.2216   -13.5306 C.3     
  30 C30          -14.4266     1.7738   -14.9033 C.3     
  31 C31          -15.3662     2.8387   -15.4726 C.3     
  32 C32          -14.5702     4.1080   -15.7829 C.3     
  33 C33          -16.0120     2.3150   -16.7570 C.3     
  34 C34          -18.0410     4.2911   -12.0502 C.2     
  35 O35          -17.8040     4.9685   -13.0279 O.2     
  36 N36          -15.8541     3.3152   -12.4425 N.am    
  37 C37          -17.0290     3.2839   -11.5681 C.3     
  38 C38          -16.6093     3.6272   -10.1374 C.3     
  39 C39          -15.6783     2.5369    -9.6035 C.3     
  40 C40          -15.2585     2.8802    -8.1728 C.3     
  41 N41          -14.3670     1.8362    -7.6615 N.pl3   
  42 C42          -13.8584     1.9297    -6.3876 C.2     
  43 N43          -13.0652     1.0008    -5.9328 N.2     
  44 N44          -14.1865     3.0030    -5.5936 N.pl3   
  45 C45          -21.0703     5.8394   -10.7127 C.2     
  46 O46          -20.8915     5.3679    -9.6097 O.2     
  47 N47          -19.2093     4.4393   -11.3948 N.am    
  48 C48          -20.1930     5.4185   -11.8634 C.3     
  49 C49          -21.0561     4.7900   -12.9594 C.3     
  50 O50          -21.8230     3.7187   -12.4060 O.3     
  51 C51          -24.2509     7.4861   -10.1988 C.2     
  52 O52          -24.5758     7.3081   -11.3536 O.2     
  53 N53          -22.0537     6.7399   -10.9093 N.am    
  54 C54          -22.8272     7.2403    -9.7701 C.3     
  55 C55          -22.2115     8.5490    -9.2711 C.3     
  56 C56          -22.0751     9.5267   -10.4401 C.3     
  57 C57          -23.4656     9.9706   -10.8986 C.3     
  58 C58          -20.8299     8.2687    -8.6768 C.3     
  59 C59          -27.2473     9.0403    -8.7957 C.2     
  60 O60          -26.6170     9.5978    -7.9223 O.2     
  61 N61          -25.1630     7.9039    -9.2988 N.am    
  62 C62          -26.5699     8.0315    -9.6870 C.3     
  63 C63          -27.2639     6.6757    -9.5422 C.3     
  64 C64          -26.6579     5.6838   -10.5371 C.3     
  65 C65          -27.3520     4.3280   -10.3923 C.3     
  66 N66          -26.7717     3.3782   -11.3449 N.pl3   
  67 C67          -27.2390     2.0863   -11.3987 C.2     
  68 N68          -28.1983     1.7066   -10.6022 N.2     
  69 N69          -26.6945     1.1950   -12.2927 N.pl3   
  70 C70          -30.6907    10.0167    -8.0524 C.2     
  71 O71          -31.1492     9.0847    -8.6785 O.2     
  72 N72          -28.5536     9.3231    -8.9692 N.am    
  73 C73          -29.2122    10.3038    -8.1028 C.3     
  74 C74          -28.9845    11.7105    -8.6597 C.3     
  75 O75          -29.6320    11.8314    -9.9278 O.3     
  76 C76          -33.6871    11.7819    -6.9259 C.2     
  77 O77          -33.0782    12.8151    -6.7448 O.2     
  78 N78          -31.5036    10.7957    -7.3114 N.am    
  79 C79          -32.9409    10.5166    -7.2624 C.3     
  80 C80          -33.2191     9.4603    -6.1911 C.3     
  81 C81          -32.5637     8.1384    -6.5961 C.3     
  82 C82          -32.7350     7.1179    -5.4690 C.3     
  83 C83          -33.2276     7.6088    -7.8688 C.3     
  84 C84          -37.0748    12.6459    -5.8581 C.2     
  85 O85          -37.3785    11.4836    -5.6910 O.2     
  86 N86          -35.0311    11.7654    -6.8261 N.am    
  87 C87          -35.7565    12.9955    -6.4990 C.3     
  88 C88          -36.0078    13.7951    -7.7790 C.3     
  89 C89          -34.6710    14.2566    -8.3628 C.3     
  90 C90          -34.9224    15.0562    -9.6428 C.3     
  91 N91          -33.6424    15.4982   -10.2018 N.pl3   
  92 C92          -33.6170    16.2385   -11.3600 C.2     
  93 N93          -34.7318    16.5473   -11.9606 N.2     
  94 N94          -32.4158    16.6533   -11.8846 N.pl3   
  95 C95          -40.2472    13.0048    -5.7387 C.2     
  96 O96          -40.0254    13.0744    -6.9291 O.2     
  97 N97          -37.9163    13.6247    -5.4705 N.am    
  98 C98          -39.1468    13.2899    -4.7493 C.3     
  99 C99          -39.5529    14.4668    -3.8600 C.3     
 100 C100         -38.5400    14.6359    -2.7571 C.2     
 101 O101         -37.5451    13.9426    -2.7358 O.2     
 102 N102         -38.7396    15.5578    -1.7943 N.am    
 103 C103         -43.8838    12.6544    -5.6161 C.2     
 104 O104         -43.9374    13.0333    -4.4652 O.2     
 105 N105         -41.4777    12.6725    -5.3008 N.am    
 106 C106         -42.5474    12.3953    -6.2626 C.3     
 107 C107         -42.4696    10.9325    -6.7044 C.3     
 108 C108         -42.6315    10.0223    -5.4853 C.3     
 109 C109         -42.6787     8.5626    -5.9413 C.3     
 110 C110         -41.1129    10.6695    -7.3607 C.3     
 111 C111         -47.3589    11.8282    -6.4188 C.2     
 112 O112         -47.1725    11.5455    -7.5834 O.2     
 113 N113         -45.0194    12.4651    -6.3168 N.am    
 114 C114         -46.3197    12.6103    -5.6577 C.3     
 115 C115         -46.7142    14.0883    -5.6281 C.3     
 116 C116         -48.0459    14.2460    -4.8916 C.3     
 117 C117         -47.8574    13.8916    -3.4152 C.3     
 118 C118         -46.8590    14.6063    -7.0604 C.3     
 119 C119         -50.3727    11.4662    -7.3429 C.2     
 120 O120         -50.2311    12.6662    -7.3415 O.2     
 121 N121         -48.4953    11.4427    -5.8053 N.am    
 122 C122         -49.4605    10.5989    -6.5143 C.3     
 123 C123         -50.2902     9.8098    -5.4994 C.3     
 124 C124         -49.3954     8.8529    -4.7546 C.2     
 125 C125         -49.2588     8.7754    -3.4171 C.2     
 126 N126         -48.3543     7.7785    -3.1685 N.pl3   
 127 C127         -47.9695     7.2812    -4.3636 C.2     
 128 N128         -48.6000     7.9252    -5.3074 N.2     
 129 O129         -51.3424    10.9058    -8.0826 O.3     
 130 C130           1.7119    -2.6273   -16.9901 C.2     
 131 O131           2.2238    -1.5289   -17.0382 O.2     
 132 C132          17.1750    -9.2552   -25.2455 C.3     
 133 C133          16.4288    -8.0387   -24.6939 C.3     
 134 C134          15.0709    -8.4795   -24.1438 C.3     
 135 C135          14.3248    -7.2630   -23.5922 C.3     
 136 C136          12.9669    -7.7039   -23.0421 C.3     
 137 C137          12.2208    -6.4873   -22.4905 C.3     
 138 C138          10.8629    -6.9282   -21.9403 C.3     
 139 C139          10.1168    -5.7117   -21.3887 C.3     
 140 C140           8.7589    -6.1525   -20.8386 C.3     
 141 C141           8.0127    -4.9360   -20.2870 C.3     
 142 C142           6.6548    -5.3769   -19.7368 C.3     
 143 C143           5.9087    -4.1604   -19.1853 C.3     
 144 C144           4.5508    -4.6012   -18.6351 C.3     
 145 C145           3.8047    -3.3847   -18.0835 C.3     
 146 C146           2.4468    -3.8256   -17.5334 C.3     
 147 H147           0.0763    -3.6549   -16.4123 H       
 148 H148          -0.3787    -0.8846   -16.7209 H       
 149 H149           0.3572    -1.1576   -15.1233 H       
 150 H150          -2.1445    -0.2020   -14.8055 H       
 151 H151          -4.0990    -2.3677   -14.9383 H       
 152 H152          -4.4968    -2.4372   -12.5237 H       
 153 H153          -2.7892    -2.8244   -12.8435 H       
 154 H154          -3.0226    -1.1830   -11.1240 H       
 155 H155          -6.2254    -1.4070   -13.5899 H       
 156 H156          -6.9722     0.9308   -14.9875 H       
 157 H157          -6.4659     1.3965   -13.3459 H       
 158 H158          -9.0852     1.9476   -13.6592 H       
 159 H159         -10.7074    -0.4214   -13.1260 H       
 160 H160         -10.2414     1.7404   -11.0240 H       
 161 H161         -11.5132     0.4985   -10.9313 H       
 162 H162          -9.7850    -1.2777   -11.0169 H       
 163 H163          -8.5132    -0.0359   -11.1096 H       
 164 H164          -9.2317     0.8637    -8.9134 H       
 165 H165         -10.5035    -0.3781    -8.8208 H       
 166 H166          -8.0261    -1.6703    -9.2320 H       
 167 H167          -7.3816    -2.0761    -5.8225 H       
 168 H168          -9.7364     0.2615    -6.8161 H       
 169 H169          -8.9723    -0.4218    -5.4849 H       
 170 H170         -13.1261     0.5362   -12.5124 H       
 171 H171         -13.5024     3.2253   -13.6072 H       
 172 H172         -13.5800     1.6389   -15.5764 H       
 173 H173         -14.9645     0.8311   -14.8025 H       
 174 H174         -16.1426     3.0662   -14.7422 H       
 175 H175         -13.8285     3.8928   -16.5521 H       
 176 H176         -15.2479     4.8840   -16.1385 H       
 177 H177         -14.0670     4.4513   -14.8790 H       
 178 H178         -16.5791     1.4108   -16.5359 H       
 179 H179         -16.6814     3.0736   -17.1626 H       
 180 H180         -15.2356     2.0875   -17.4874 H       
 181 H181         -15.6438     4.1186   -12.9437 H       
 182 H182         -17.4703     2.2874   -11.5880 H       
 183 H183         -16.0885     4.5847   -10.1314 H       
 184 H184         -17.4945     3.6911    -9.5045 H       
 185 H185         -16.1991     1.5794    -9.6094 H       
 186 H186         -14.7931     2.4730   -10.2363 H       
 187 H187         -14.7377     3.8377    -8.1668 H       
 188 H188         -16.1437     2.9441    -7.5399 H       
 189 H189         -14.1355     1.0789    -8.2218 H       
 190 H190         -12.7064     1.0668    -5.0340 H       
 191 H191         -14.7768     3.6943    -5.9321 H       
 192 H192         -13.8277     3.0690    -4.6948 H       
 193 H193         -19.3988     3.8976   -10.6128 H       
 194 H194         -19.6756     6.2904   -12.2637 H       
 195 H195         -21.7280     5.5437   -13.3697 H       
 196 H196         -20.4139     4.4056   -13.7518 H       
 197 H197         -22.3950     3.2731   -13.0458 H       
 198 H198         -22.2493     7.0566   -11.8050 H       
 199 H199         -22.8115     6.5023    -8.9681 H       
 200 H200         -22.8545     8.9846    -8.5063 H       
 201 H201         -21.5027    10.3976   -10.1204 H       
 202 H202         -21.5596     9.0362   -11.2657 H       
 203 H203         -24.0597    10.2582   -10.0311 H       
 204 H204         -23.3713    10.8220   -11.5727 H       
 205 H205         -23.9565     9.1480   -11.4187 H       
 206 H206         -20.1533     7.9440    -9.4673 H       
 207 H207         -20.4413     9.1771    -8.2164 H       
 208 H208         -20.9106     7.4854    -7.9232 H       
 209 H209         -24.8880     8.1200    -8.3941 H       
 210 H210         -26.6321     8.3628   -10.7236 H       
 211 H211         -27.1251     6.3030    -8.5274 H       
 212 H212         -28.3288     6.7891    -9.7452 H       
 213 H213         -26.7967     6.0565   -11.5520 H       
 214 H214         -25.5930     5.5703   -10.3341 H       
 215 H215         -27.2132     3.9553    -9.3775 H       
 216 H216         -28.4169     4.4414   -10.5953 H       
 217 H217         -26.0578     3.6607   -11.9377 H       
 218 H218         -28.5281     0.7952   -10.6401 H       
 219 H219         -25.9806     1.4776   -12.8855 H       
 220 H220         -27.0242     0.2835   -12.3306 H       
 221 H221         -29.0577     8.8772    -9.6678 H       
 222 H222         -28.7950    10.2389    -7.0979 H       
 223 H223         -29.3976    12.4459    -7.9692 H       
 224 H224         -27.9153    11.8852    -8.7795 H       
 225 H225         -29.5292    12.6998   -10.3407 H       
 226 H226         -31.1369    11.5411    -6.8106 H       
 227 H227         -33.2724    10.1464    -8.2325 H       
 228 H228         -32.8081     9.7925    -5.2378 H       
 229 H229         -34.2952     9.3171    -6.0928 H       
 230 H230         -31.5018     8.3009    -6.7808 H       
 231 H231         -33.7968     6.9554    -5.2843 H       
 232 H232         -32.2680     6.1762    -5.7575 H       
 233 H233         -32.2620     7.4952    -4.5623 H       
 234 H234         -33.1056     8.3358    -8.6717 H       
 235 H235         -32.7607     6.6671    -8.1573 H       
 236 H236         -34.2894     7.4463    -7.6840 H       
 237 H237         -35.5180    10.9391    -6.9709 H       
 238 H238         -35.1635    13.5939    -5.8073 H       
 239 H239         -36.5235    13.1663    -8.5048 H       
 240 H240         -36.6235    14.6647    -7.5491 H       
 241 H241         -34.1553    14.8854    -7.6370 H       
 242 H242         -34.0553    13.3870    -8.5926 H       
 243 H243         -35.4381    14.4275   -10.3686 H       
 244 H244         -35.5381    15.9258    -9.4129 H       
 245 H245         -32.8127    15.2684    -9.7548 H       
 246 H246         -34.7140    17.0696   -12.7778 H       
 247 H247         -31.5862    16.4235   -11.4375 H       
 248 H248         -32.3979    17.1756   -12.7017 H       
 249 H249         -37.7072    14.5509    -5.6691 H       
 250 H250         -38.9770    12.4087    -4.1307 H       
 251 H251         -39.5941    15.3770    -4.4582 H       
 252 H252         -40.5337    14.2726    -3.4259 H       
 253 H253         -39.5352    16.1123    -1.8113 H       
 254 H254         -38.0876    15.6666    -1.0844 H       
 255 H255         -41.6550    12.6168    -4.3488 H       
 256 H256         -42.4321    13.0438    -7.1311 H       
 257 H257         -43.2655    10.7263    -7.4200 H       
 258 H258         -41.7873    10.1651    -4.8106 H       
 259 H259         -43.5573    10.2710    -4.9665 H       
 260 H260         -43.5228     8.4199    -6.6159 H       
 261 H261         -41.7529     8.3139    -6.4601 H       
 262 H262         -42.7939     7.9142    -5.0728 H       
 263 H263         -40.3170    10.8757    -6.6451 H       
 264 H264         -41.0575     9.6274    -7.6755 H       
 265 H265         -40.9976    11.3179    -8.2293 H       
 266 H266         -44.9758    12.2327    -7.2575 H       
 267 H267         -46.2544    12.2312    -4.6378 H       
 268 H268         -45.9433    14.6599    -5.1112 H       
 269 H269         -48.3883    15.2774    -4.9767 H       
 270 H270         -48.7867    13.5796    -5.3335 H       
 271 H271         -48.8185    13.9428    -2.9036 H       
 272 H272         -47.4552    12.8819    -3.3325 H       
 273 H273         -47.1641    14.5974    -2.9577 H       
 274 H274         -47.5789    13.9897    -7.5987 H       
 275 H275         -47.2084    15.6386    -7.0399 H       
 276 H276         -45.8930    14.5596    -7.5631 H       
 277 H277         -48.6742    11.7241    -4.8944 H       
 278 H278         -48.9278     9.9058    -7.1654 H       
 279 H279         -50.7523    10.4996    -4.7931 H       
 280 H280         -51.0663     9.2501    -6.0213 H       
 281 H281         -49.7652     9.3832    -2.6819 H       
 282 H282         -48.0471     7.4843    -2.2968 H       
 283 H283         -47.2605     6.4804    -4.5133 H       
 284 H284         -51.9024    11.5028    -8.5975 H       
 285 H285          17.3250    -9.9821   -24.4473 H       
 286 H286          16.5891    -9.7091   -26.0448 H       
 287 H287          18.1424    -8.9411   -25.6375 H       
 288 H288          17.0147    -7.5848   -23.8946 H       
 289 H289          16.2788    -7.3118   -25.4922 H       
 290 H290          14.4851    -8.9334   -24.9431 H       
 291 H291          15.2210    -9.2064   -23.3455 H       
 292 H292          14.9107    -6.8091   -22.7929 H       
 293 H293          14.1748    -6.5361   -24.3905 H       
 294 H294          12.3811    -8.1577   -23.8413 H       
 295 H295          13.1169    -8.4307   -22.2438 H       
 296 H296          12.8066    -6.0335   -21.6912 H       
 297 H297          12.0707    -5.7605   -23.2887 H       
 298 H298          10.2770    -7.3821   -22.7396 H       
 299 H299          11.0129    -7.6551   -21.1420 H       
 300 H300          10.7026    -5.2578   -20.5894 H       
 301 H301           9.9667    -4.9848   -22.1870 H       
 302 H302           8.1730    -6.6064   -21.6379 H       
 303 H303           8.9089    -6.8794   -20.0403 H       
 304 H304           8.5986    -4.4821   -19.4877 H       
 305 H305           7.8627    -4.2091   -21.0853 H       
 306 H306           6.0690    -5.8308   -20.5361 H       
 307 H307           6.8049    -6.1038   -18.9386 H       
 308 H308           6.4946    -3.7065   -18.3860 H       
 309 H309           5.7587    -3.4335   -19.9835 H       
 310 H310           3.9649    -5.0551   -19.4344 H       
 311 H311           4.7008    -5.3281   -17.8368 H       
 312 H312           4.3905    -2.9308   -17.2842 H       
 313 H313           3.6546    -2.6578   -18.8818 H       
 314 H314           2.5968    -4.5524   -16.7351 H       
 315 H315           1.8609    -4.2794   -18.3327 H       
@<TRIPOS>BOND
   1    1    2 2
   2    1    4 1
   3    1    7 am
   4    3    4 1
   5    3  130 am
   6    3  147 1
   7    4  148 1
   8    4  149 1
   9    5    6 2
  10    5    8 1
  11    5   13 am
  12    7    8 1
  13    7  150 1
  14    8    9 1
  15    8  151 1
  16    9   10 1
  17    9  152 1
  18    9  153 1
  19   10  154 1
  20   11   12 2
  21   11   14 1
  22   11   17 am
  23   13   14 1
  24   13  155 1
  25   14  156 1
  26   14  157 1
  27   15   16 2
  28   15   18 1
  29   15   28 am
  30   17   18 1
  31   17  158 1
  32   18   19 1
  33   18  159 1
  34   19   20 1
  35   19  160 1
  36   19  161 1
  37   20   21 1
  38   20  162 1
  39   20  163 1
  40   21   22 1
  41   21  164 1
  42   21  165 1
  43   22   23 1
  44   22  166 1
  45   23   24 2
  46   23   25 1
  47   24  167 1
  48   25  168 1
  49   25  169 1
  50   26   27 2
  51   26   29 1
  52   26   36 am
  53   28   29 1
  54   28  170 1
  55   29   30 1
  56   29  171 1
  57   30   31 1
  58   30  172 1
  59   30  173 1
  60   31   32 1
  61   31   33 1
  62   31  174 1
  63   32  175 1
  64   32  176 1
  65   32  177 1
  66   33  178 1
  67   33  179 1
  68   33  180 1
  69   34   35 2
  70   34   37 1
  71   34   47 am
  72   36   37 1
  73   36  181 1
  74   37   38 1
  75   37  182 1
  76   38   39 1
  77   38  183 1
  78   38  184 1
  79   39   40 1
  80   39  185 1
  81   39  186 1
  82   40   41 1
  83   40  187 1
  84   40  188 1
  85   41   42 1
  86   41  189 1
  87   42   43 2
  88   42   44 1
  89   43  190 1
  90   44  191 1
  91   44  192 1
  92   45   46 2
  93   45   48 1
  94   45   53 am
  95   47   48 1
  96   47  193 1
  97   48   49 1
  98   48  194 1
  99   49   50 1
 100   49  195 1
 101   49  196 1
 102   50  197 1
 103   51   52 2
 104   51   54 1
 105   51   61 am
 106   53   54 1
 107   53  198 1
 108   54   55 1
 109   54  199 1
 110   55   56 1
 111   55   58 1
 112   55  200 1
 113   56   57 1
 114   56  201 1
 115   56  202 1
 116   57  203 1
 117   57  204 1
 118   57  205 1
 119   58  206 1
 120   58  207 1
 121   58  208 1
 122   59   60 2
 123   59   62 1
 124   59   72 am
 125   61   62 1
 126   61  209 1
 127   62   63 1
 128   62  210 1
 129   63   64 1
 130   63  211 1
 131   63  212 1
 132   64   65 1
 133   64  213 1
 134   64  214 1
 135   65   66 1
 136   65  215 1
 137   65  216 1
 138   66   67 1
 139   66  217 1
 140   67   68 2
 141   67   69 1
 142   68  218 1
 143   69  219 1
 144   69  220 1
 145   70   71 2
 146   70   73 1
 147   70   78 am
 148   72   73 1
 149   72  221 1
 150   73   74 1
 151   73  222 1
 152   74   75 1
 153   74  223 1
 154   74  224 1
 155   75  225 1
 156   76   77 2
 157   76   79 1
 158   76   86 am
 159   78   79 1
 160   78  226 1
 161   79   80 1
 162   79  227 1
 163   80   81 1
 164   80  228 1
 165   80  229 1
 166   81   82 1
 167   81   83 1
 168   81  230 1
 169   82  231 1
 170   82  232 1
 171   82  233 1
 172   83  234 1
 173   83  235 1
 174   83  236 1
 175   84   85 2
 176   84   87 1
 177   84   97 am
 178   86   87 1
 179   86  237 1
 180   87   88 1
 181   87  238 1
 182   88   89 1
 183   88  239 1
 184   88  240 1
 185   89   90 1
 186   89  241 1
 187   89  242 1
 188   90   91 1
 189   90  243 1
 190   90  244 1
 191   91   92 1
 192   91  245 1
 193   92   93 2
 194   92   94 1
 195   93  246 1
 196   94  247 1
 197   94  248 1
 198   95   96 2
 199   95   98 1
 200   95  105 am
 201   97   98 1
 202   97  249 1
 203   98   99 1
 204   98  250 1
 205   99  100 1
 206   99  251 1
 207   99  252 1
 208  100  101 2
 209  100  102 am
 210  102  253 1
 211  102  254 1
 212  103  104 2
 213  103  106 1
 214  103  113 am
 215  105  106 1
 216  105  255 1
 217  106  107 1
 218  106  256 1
 219  107  108 1
 220  107  110 1
 221  107  257 1
 222  108  109 1
 223  108  258 1
 224  108  259 1
 225  109  260 1
 226  109  261 1
 227  109  262 1
 228  110  263 1
 229  110  264 1
 230  110  265 1
 231  111  112 2
 232  111  114 1
 233  111  121 am
 234  113  114 1
 235  113  266 1
 236  114  115 1
 237  114  267 1
 238  115  116 1
 239  115  118 1
 240  115  268 1
 241  116  117 1
 242  116  269 1
 243  116  270 1
 244  117  271 1
 245  117  272 1
 246  117  273 1
 247  118  274 1
 248  118  275 1
 249  118  276 1
 250  119  120 2
 251  119  122 1
 252  119  129 1
 253  121  122 1
 254  121  277 1
 255  122  123 1
 256  122  278 1
 257  123  124 1
 258  123  279 1
 259  123  280 1
 260  124  125 2
 261  124  128 1
 262  125  126 1
 263  125  281 1
 264  126  127 1
 265  126  282 1
 266  127  128 2
 267  127  283 1
 268  129  284 1
 269  130  131 2
 270  130  146 1
 271  132  133 1
 272  132  285 1
 273  132  286 1
 274  132  287 1
 275  133  134 1
 276  133  288 1
 277  133  289 1
 278  134  135 1
 279  134  290 1
 280  134  291 1
 281  135  136 1
 282  135  292 1
 283  135  293 1
 284  136  137 1
 285  136  294 1
 286  136  295 1
 287  137  138 1
 288  137  296 1
 289  137  297 1
 290  138  139 1
 291  138  298 1
 292  138  299 1
 293  139  140 1
 294  139  300 1
 295  139  301 1
 296  140  141 1
 297  140  302 1
 298  140  303 1
 299  141  142 1
 300  141  304 1
 301  141  305 1
 302  142  143 1
 303  142  306 1
 304  142  307 1
 305  143  144 1
 306  143  308 1
 307  143  309 1
 308  144  145 1
 309  144  310 1
 310  144  311 1
 311  145  146 1
 312  145  312 1
 313  145  313 1
 314  146  314 1
 315  146  315 1

#	End of record

