#	Name: ASD01814449
#	Creating user name:	WinNT
#	Creation time:	15. 06. 2019 19:32

#	Modifying user name:	WinNT
#	Modification time:	15. 06. 2019 19:32

#	Program:	/corina/corina34_cracker 3.40 0067  02.08.2006

@<TRIPOS>MOLECULE
ASD01814449
  57   62    0    0    0
SMALL
NO_CHARGES


@<TRIPOS>ATOM
   1 C1            -0.0204     1.3733     0.1434 C.ar    
   2 C2             0.0112    -0.0082     0.2488 C.ar    
   3 C3             1.2040    -0.6965     0.1506 C.ar    
   4 C4             2.3903    -0.0009    -0.0564 C.ar    
   5 C5             2.3522     1.4027    -0.1627 C.ar    
   6 C6             1.1462     2.0827    -0.0622 C.ar    
   7 N7             3.5986    -0.6600    -0.1584 N.pl3   
   8 N8             4.7188    -0.0650    -0.3486 N.2     
   9 C9             4.8417     1.2318    -0.4670 C.2     
  10 C10            3.6367     2.0929    -0.3819 C.2     
  11 C11            5.9525     2.1616    -0.6830 C.2     
  12 N12            5.4087     3.3973    -0.7117 N.am    
  13 N13            4.0254     3.3239    -0.5294 N.2     
  14 C14            3.6020    -2.1204    -0.0426 C.3     
  15 C15            5.0125    -2.6322    -0.1822 C.ar    
  16 C16            5.8089    -2.7749     0.9392 C.ar    
  17 C17            7.1022    -3.2433     0.8144 C.ar    
  18 C18            7.6024    -3.5713    -0.4385 C.ar    
  19 C19            6.8003    -3.4273    -1.5625 C.ar    
  20 C20            5.5060    -2.9634    -1.4308 C.ar    
  21 O21            7.1318     1.8770    -0.8106 O.2     
  22 C22            6.1622     4.6386    -0.9060 C.3     
  23 N23            8.9148    -4.0465    -0.5684 N.pl3   
  24 C24            5.6561     5.3531    -2.1618 C.3     
  25 O25            4.2821     5.7049    -1.9869 O.3     
  26 C26            4.0424     6.5963    -0.8960 C.3     
  27 C27            4.4837     5.9317     0.4106 C.3     
  28 C28            5.9643     5.5528     0.3070 C.3     
  29 Cl29           1.2230    -2.4271     0.2859 Cl      
  30 C30            6.3946     4.8174     1.5778 C.3     
  31 C31            9.5225    -4.4001    -1.7235 C.2     
  32 C32           10.7785    -4.8028    -1.4214 C.2     
  33 C33           10.9451    -4.6921    -0.0366 C.2     
  34 N34            9.8311    -4.2333     0.4746 N.2     
  35 H35           -0.9621     1.8969     0.2179 H       
  36 H36           -0.9076    -0.5525     0.4099 H       
  37 H37            1.1206     3.1593    -0.1439 H       
  38 H38            3.2056    -2.4086     0.9310 H       
  39 H39            2.9806    -2.5487    -0.8291 H       
  40 H40            5.4192    -2.5196     1.9136 H       
  41 H41            7.7239    -3.3539     1.6906 H       
  42 H42            7.1867    -3.6813    -2.5385 H       
  43 H43            4.8815    -2.8511    -2.3048 H       
  44 H44            7.2214     4.4076    -1.0203 H       
  45 H45            6.2441     6.2557    -2.3284 H       
  46 H46            5.7551     4.6907    -3.0218 H       
  47 H47            4.6092     7.5151    -1.0460 H       
  48 H48            2.9789     6.8295    -0.8441 H       
  49 H49            4.3427     6.6266     1.2385 H       
  50 H50            3.8892     5.0343     0.5818 H       
  51 H51            6.5639     6.4549     0.1854 H       
  52 H52            5.7963     3.9138     1.6949 H       
  53 H53            7.4482     4.5483     1.5028 H       
  54 H54            6.2458     5.4661     2.4410 H       
  55 H55            9.0839    -4.3676    -2.7099 H       
  56 H56           11.5213    -5.1487    -2.1250 H       
  57 H57           11.8403    -4.9384     0.5150 H       
@<TRIPOS>BOND
   1    1    2 ar
   2    1    6 ar
   3    1   35 1
   4    2    3 ar
   5    2   36 1
   6    3    4 ar
   7    3   29 1
   8    4    5 ar
   9    4    7 1
  10    5    6 ar
  11    5   10 1
  12    6   37 1
  13    7    8 1
  14    7   14 1
  15    8    9 2
  16    9   10 1
  17    9   11 1
  18   10   13 2
  19   11   12 am
  20   11   21 2
  21   12   13 1
  22   12   22 1
  23   14   15 1
  24   14   38 1
  25   14   39 1
  26   15   16 ar
  27   15   20 ar
  28   16   17 ar
  29   16   40 1
  30   17   18 ar
  31   17   41 1
  32   18   19 ar
  33   18   23 1
  34   19   20 ar
  35   19   42 1
  36   20   43 1
  37   22   24 1
  38   22   28 1
  39   22   44 1
  40   23   31 1
  41   23   34 1
  42   24   25 1
  43   24   45 1
  44   24   46 1
  45   25   26 1
  46   26   27 1
  47   26   47 1
  48   26   48 1
  49   27   28 1
  50   27   49 1
  51   27   50 1
  52   28   30 1
  53   28   51 1
  54   30   52 1
  55   30   53 1
  56   30   54 1
  57   31   32 2
  58   31   55 1
  59   32   33 1
  60   32   56 1
  61   33   34 2
  62   33   57 1

#	End of record

