#	Name: ASD03900046
#	Creating user name:	WinNT
#	Creation time:	15. 06. 2019 20:47

#	Modifying user name:	WinNT
#	Modification time:	15. 06. 2019 20:47

#	Program:	/corina/corina34_cracker 3.40 0067  02.08.2006

@<TRIPOS>MOLECULE
ASD03900046
  55   57    0    0    0
SMALL
NO_CHARGES


@<TRIPOS>ATOM
   1 C1            -0.0184     1.5028     0.0103 C.3     
   2 C2             0.2429     0.0209     0.0940 C.ar    
   3 C3             1.3134     2.2559     0.0036 C.3     
   4 C4             0.9111    -0.5011     1.1863 C.ar    
   5 C5            -0.1911    -0.8144    -0.9190 C.ar    
   6 C6             0.0466    -2.1728    -0.8455 C.ar    
   7 C7             0.7225    -2.6998     0.2477 C.ar    
   8 C8             1.1522    -1.8586     1.2662 C.ar    
   9 N9             0.9646    -4.0732     0.3253 N.pl3   
  10 C10           -0.7748     1.8087    -1.2567 C.ar    
  11 C11           -2.0734     1.3591    -1.4105 C.ar    
  12 C12           -2.7693     1.6373    -2.5705 C.ar    
  13 C13           -2.1635     2.3701    -3.5832 C.ar    
  14 C14           -0.8590     2.8206    -3.4252 C.ar    
  15 C15           -0.1706     2.5433    -2.2605 C.ar    
  16 N16           -2.8642     2.6529    -4.7579 N.pl3   
  17 C17           -0.8350     1.9369     1.2002 C.ar    
  18 C18           -1.0701     3.2811     1.4225 C.ar    
  19 C19           -1.8183     3.6817     2.5125 C.ar    
  20 C20           -2.3340     2.7338     3.3844 C.ar    
  21 C21           -2.0967     1.3856     3.1591 C.ar    
  22 C22           -1.3526     0.9899     2.0645 C.ar    
  23 O23           -3.0701     3.1253     4.4576 O.3     
  24 C24           -4.1842     1.1460    -2.7376 C.3     
  25 C25           -0.1975     3.6155    -4.5214 C.3     
  26 C26            1.8863    -2.4258     2.4538 C.3     
  27 C27           -0.4272    -3.0824    -1.9496 C.3     
  28 H28            1.9041     1.9419    -0.8570 H       
  29 H29            1.1245     3.3276    -0.0569 H       
  30 H30            1.8606     2.0346     0.9201 H       
  31 H31            1.2452     0.1535     1.9777 H       
  32 H32           -0.7169    -0.4040    -1.7684 H       
  33 H33            0.6607    -4.6602    -0.3847 H       
  34 H34            1.4368    -4.4401     1.0891 H       
  35 H35           -2.5438     0.7894    -0.6227 H       
  36 H36            0.8436     2.8933    -2.1370 H       
  37 H37           -3.7750     2.3374    -4.8672 H       
  38 H38           -2.4402     3.1646    -5.4644 H       
  39 H39           -0.6681     4.0187     0.7436 H       
  40 H40           -2.0014     4.7318     2.6859 H       
  41 H41           -2.4971     0.6458     3.8364 H       
  42 H42           -1.1675    -0.0595     1.8887 H       
  43 H43           -4.0186     3.1908     4.2813 H       
  44 H44           -4.8768     1.8973    -2.3584 H       
  45 H45           -4.3844     0.9675    -3.7941 H       
  46 H46           -4.3146     0.2178    -2.1812 H       
  47 H47           -0.3893     4.6773    -4.3667 H       
  48 H48            0.8772     3.4341    -4.5040 H       
  49 H49           -0.6019     3.3101    -5.4864 H       
  50 H50            2.9574    -2.4279     2.2518 H       
  51 H51            1.6835    -1.8136     3.3326 H       
  52 H52            1.5490    -3.4461     2.6361 H       
  53 H53            0.3522    -3.1718    -2.7063 H       
  54 H54           -0.6495    -4.0672    -1.5388 H       
  55 H55           -1.3271    -2.6660    -2.4024 H       
@<TRIPOS>BOND
   1    1    2 1
   2    1    3 1
   3    1   10 1
   4    1   17 1
   5    2    4 ar
   6    2    5 ar
   7    3   28 1
   8    3   29 1
   9    3   30 1
  10    4    8 ar
  11    4   31 1
  12    5    6 ar
  13    5   32 1
  14    6    7 ar
  15    6   27 1
  16    7    8 ar
  17    7    9 1
  18    8   26 1
  19    9   33 1
  20    9   34 1
  21   10   11 ar
  22   10   15 ar
  23   11   12 ar
  24   11   35 1
  25   12   13 ar
  26   12   24 1
  27   13   14 ar
  28   13   16 1
  29   14   15 ar
  30   14   25 1
  31   15   36 1
  32   16   37 1
  33   16   38 1
  34   17   18 ar
  35   17   22 ar
  36   18   19 ar
  37   18   39 1
  38   19   20 ar
  39   19   40 1
  40   20   21 ar
  41   20   23 1
  42   21   22 ar
  43   21   41 1
  44   22   42 1
  45   23   43 1
  46   24   44 1
  47   24   45 1
  48   24   46 1
  49   25   47 1
  50   25   48 1
  51   25   49 1
  52   26   50 1
  53   26   51 1
  54   26   52 1
  55   27   53 1
  56   27   54 1
  57   27   55 1

#	End of record

