#	Name: ASD01884521
#	Creating user name:	WinNT
#	Creation time:	15. 06. 2019 19:48

#	Modifying user name:	WinNT
#	Modification time:	15. 06. 2019 19:48

#	Program:	/corina/corina34_cracker 3.40 0067  02.08.2006

@<TRIPOS>MOLECULE
ASD01884521
  40   42    0    0    0
SMALL
NO_CHARGES


@<TRIPOS>ATOM
   1 C1             0.5360     0.7979     2.1401 C.2     
   2 C2             0.3624    -0.3613     1.4432 C.2     
   3 C3             1.4369    -0.8851     0.7022 C.2     
   4 C4             2.6297    -0.2340     0.6889 C.2     
   5 N5             2.7951     0.9219     1.3865 N.am    
   6 C6             1.7827     1.4445     2.1038 C.2     
   7 C7             4.0902     1.6061     1.3571 C.3     
   8 O8             1.9485     2.4830     2.7243 O.2     
   9 C9             4.1148     2.5858     0.2122 C.ar    
  10 C10            3.6920     3.8874     0.4074 C.ar    
  11 C11            3.7144     4.7863    -0.6422 C.ar    
  12 C12            4.1601     4.3832    -1.8884 C.ar    
  13 C13            4.5831     3.0804    -2.0832 C.ar    
  14 C14            4.5655     2.1839    -1.0313 C.ar    
  15 Cl15           4.1879     5.5116    -3.2074 Cl      
  16 N16            1.2779    -2.0769    -0.0208 N.pl3   
  17 C17            0.0942    -2.8095     0.0920 C.ar    
  18 C18           -0.9509    -2.5852    -0.7957 C.ar    
  19 C19            2.3536    -2.5528    -0.8942 C.3     
  20 C20           -2.1198    -3.3113    -0.6812 C.ar    
  21 C21           -2.2510    -4.2610     0.3155 C.ar    
  22 C22           -1.2130    -4.4866     1.2010 C.ar    
  23 C23           -0.0389    -3.7684     1.0886 C.ar    
  24 H24           -0.2790     1.2175     2.7112 H       
  25 H25           -0.5893    -0.8715     1.4604 H       
  26 H26            3.4537    -0.6381     0.1195 H       
  27 H27            4.2404     2.1400     2.2955 H       
  28 H28            4.8857     0.8728     1.2250 H       
  29 H29            3.3438     4.2018     1.3802 H       
  30 H30            3.3838     5.8031    -0.4897 H       
  31 H31            4.9310     2.7652    -3.0558 H       
  32 H32            4.8957     1.1669    -1.1832 H       
  33 H33           -0.8492    -1.8434    -1.5741 H       
  34 H34            3.0225    -3.2000    -0.3270 H       
  35 H35            1.9255    -3.1123    -1.7260 H       
  36 H36            2.9129    -1.7002    -1.2793 H       
  37 H37           -2.9327    -3.1372    -1.3707 H       
  38 H38           -3.1664    -4.8275     0.4027 H       
  39 H39           -1.3190    -5.2288     1.9785 H       
  40 H40            0.7715    -3.9454     1.7802 H       
@<TRIPOS>BOND
   1    1    2 2
   2    1    6 1
   3    1   24 1
   4    2    3 1
   5    2   25 1
   6    3    4 2
   7    3   16 1
   8    4    5 1
   9    4   26 1
  10    5    6 am
  11    5    7 1
  12    6    8 2
  13    7    9 1
  14    7   27 1
  15    7   28 1
  16    9   10 ar
  17    9   14 ar
  18   10   11 ar
  19   10   29 1
  20   11   12 ar
  21   11   30 1
  22   12   13 ar
  23   12   15 1
  24   13   14 ar
  25   13   31 1
  26   14   32 1
  27   16   17 1
  28   16   19 1
  29   17   18 ar
  30   17   23 ar
  31   18   20 ar
  32   18   33 1
  33   19   34 1
  34   19   35 1
  35   19   36 1
  36   20   21 ar
  37   20   37 1
  38   21   22 ar
  39   21   38 1
  40   22   23 ar
  41   22   39 1
  42   23   40 1

#	End of record

