#	Name: ASD02440043
#	Creating user name:	WinNT
#	Creation time:	15. 06. 2019 20:21

#	Modifying user name:	WinNT
#	Modification time:	15. 06. 2019 20:21

#	Program:	/corina/corina34_cracker 3.40 0067  02.08.2006

@<TRIPOS>MOLECULE
ASD02440043
  62   66    0    0    0
SMALL
NO_CHARGES


@<TRIPOS>ATOM
   1 N1             0.0422     1.4832     0.6543 N.am    
   2 C2             0.0472     0.1257     0.8232 C.2     
   3 S3             1.7182    -0.4116     0.5795 S.3     
   4 C4             2.3502     1.2147     0.2583 C.2     
   5 C5             1.1803     2.0920     0.3662 C.2     
   6 N6            -0.9864    -0.6327     1.1110 N.2     
   7 C7            -0.8254    -1.9852     1.2502 C.ar    
   8 C8            -1.2012     2.2471     0.7839 C.3     
   9 C9            -1.3762     2.6826     2.2159 C.ar    
  10 O10            1.2516     3.2960     0.2022 O.2     
  11 C11            3.6301     1.5678    -0.0238 C.2     
  12 C12            4.7046     0.5714     0.0714 C.ar    
  13 C13            5.9062     0.7653    -0.6211 C.ar    
  14 C14            6.9102    -0.1721    -0.5282 C.ar    
  15 C15            6.7327    -1.3097     0.2506 C.ar    
  16 C16            5.5420    -1.5074     0.9401 C.ar    
  17 C17            4.5336    -0.5734     0.8595 C.ar    
  18 C18           -1.4214    -2.6555     2.3207 C.ar    
  19 C19           -1.2561    -4.0183     2.4555 C.ar    
  20 C20           -0.5002    -4.7220     1.5318 C.ar    
  21 C21            0.0935    -4.0624     0.4677 C.ar    
  22 C22           -0.0695    -2.7007     0.3192 C.ar    
  23 C23           -2.2135     2.2584     4.4190 C.ar    
  24 C24           -2.0494     1.8656     3.1069 C.ar    
  25 C25           -0.8580     3.8952     2.6351 C.ar    
  26 C26           -1.0145     4.3000     3.9445 C.ar    
  27 C27           -1.6977     3.4831     4.8475 C.ar    
  28 C28           -1.8700     3.9105     6.2511 C.2     
  29 O29           -2.4616     3.1959     7.0353 O.2     
  30 O30           -1.3712     5.0927     6.6613 O.3     
  31 F31           -0.3410    -6.0565     1.6694 F       
  32 O32            7.7258    -2.2315     0.3379 O.3     
  33 C33            7.4778    -3.3770     1.1553 C.3     
  34 C34            8.6826    -4.2819     1.1310 C.ar    
  35 C35            9.6878    -4.1197     2.0661 C.ar    
  36 C36           10.7930    -4.9497     2.0438 C.ar    
  37 C37           10.8928    -5.9421     1.0867 C.ar    
  38 C38            9.8873    -6.1049     0.1522 C.ar    
  39 C39            8.7800    -5.2777     0.1772 C.ar    
  40 H40           -1.1569     3.1253     0.1398 H       
  41 H41           -2.0440     1.6221     0.4887 H       
  42 H42            3.8582     2.5815    -0.3182 H       
  43 H43            6.0450     1.6484    -1.2270 H       
  44 H44            7.8374    -0.0236    -1.0618 H       
  45 H45            5.4094    -2.3930     1.5438 H       
  46 H46            3.6091    -0.7278     1.3959 H       
  47 H47           -2.0102    -2.1079     3.0417 H       
  48 H48           -1.7165    -4.5378     3.2829 H       
  49 H49            0.6819    -4.6161    -0.2490 H       
  50 H50            0.3935    -2.1877    -0.5108 H       
  51 H51           -2.7398     1.6200     5.1133 H       
  52 H52           -2.4475     0.9184     2.7742 H       
  53 H53           -0.3295     4.5260     1.9357 H       
  54 H54           -0.6093     5.2466     4.2705 H       
  55 H55           -1.5089     5.3293     7.5887 H       
  56 H56            7.2839    -3.0576     2.1793 H       
  57 H57            6.6110    -3.9157     0.7725 H       
  58 H58            9.6098    -3.3443     2.8138 H       
  59 H59           11.5786    -4.8225     2.7738 H       
  60 H60           11.7567    -6.5901     1.0688 H       
  61 H61            9.9655    -6.8801    -0.5957 H       
  62 H62            7.9944    -5.4049    -0.5528 H       
@<TRIPOS>BOND
   1    1    2 1
   2    1    5 am
   3    1    8 1
   4    2    3 1
   5    2    6 2
   6    3    4 1
   7    4    5 1
   8    4   11 2
   9    5   10 2
  10    6    7 1
  11    7   18 ar
  12    7   22 ar
  13    8    9 1
  14    8   40 1
  15    8   41 1
  16    9   25 ar
  17    9   24 ar
  18   11   12 1
  19   11   42 1
  20   12   13 ar
  21   12   17 ar
  22   13   14 ar
  23   13   43 1
  24   14   15 ar
  25   14   44 1
  26   15   16 ar
  27   15   32 1
  28   16   17 ar
  29   16   45 1
  30   17   46 1
  31   18   19 ar
  32   18   47 1
  33   19   20 ar
  34   19   48 1
  35   20   21 ar
  36   20   31 1
  37   21   22 ar
  38   21   49 1
  39   22   50 1
  40   23   24 ar
  41   23   27 ar
  42   23   51 1
  43   24   52 1
  44   25   26 ar
  45   25   53 1
  46   26   27 ar
  47   26   54 1
  48   27   28 1
  49   28   29 2
  50   28   30 1
  51   30   55 1
  52   32   33 1
  53   33   34 1
  54   33   56 1
  55   33   57 1
  56   34   35 ar
  57   34   39 ar
  58   35   36 ar
  59   35   58 1
  60   36   37 ar
  61   36   59 1
  62   37   38 ar
  63   37   60 1
  64   38   39 ar
  65   38   61 1
  66   39   62 1

#	End of record

