#	Name: ASD08150284
#	Creating user name:	WinNT
#	Creation time:	15. 06. 2019 21:15

#	Modifying user name:	WinNT
#	Modification time:	15. 06. 2019 21:15

#	Program:	/corina/corina34_cracker 3.40 0067  02.08.2006

@<TRIPOS>MOLECULE
ASD08150284
  51   54    0    0    0
SMALL
NO_CHARGES


@<TRIPOS>ATOM
   1 O1            -0.8033     0.8266    -1.8093 O.3     
   2 C2            -0.6548    -0.4175    -1.3409 C.2     
   3 N3             0.6133    -0.8506    -1.3454 N.am    
   4 C4             1.4773     0.2121    -1.8820 C.3     
   5 C5             0.4966     1.3581    -2.1972 C.3     
   6 O6            -1.5847    -1.0931    -0.9470 O.2     
   7 C7             2.1806    -0.2593    -3.1564 C.3     
   8 C8             2.7583    -3.5778    -0.4605 C.ar    
   9 N9             1.9121    -4.5217    -0.0794 N.ar    
  10 C10            0.5968    -4.3055    -0.0954 C.ar    
  11 C11            0.1195    -3.0664    -0.5207 C.ar    
  12 C12            1.0425    -2.1009    -0.9133 C.ar    
  13 N13            2.3396    -2.3897    -0.8702 N.ar    
  14 C14           -2.0474    -7.2882     1.1066 C.ar    
  15 N15           -1.0986    -7.5839     0.2290 N.ar    
  16 C16           -0.2410    -6.6653    -0.1771 C.ar    
  17 C17           -0.3448    -5.3673     0.3323 C.ar    
  18 C18           -1.3588    -5.0966     1.2556 C.ar    
  19 N19           -2.1779    -6.0697     1.6121 N.ar    
  20 C20            0.8344    -7.0113    -1.1746 C.3     
  21 F21            0.5874    -8.2823    -1.7045 F       
  22 F22            0.8337    -6.0673    -2.2072 F       
  23 F23            2.0802    -7.0054    -0.5382 F       
  24 N24            4.1173    -3.8373    -0.4246 N.3     
  25 C25            4.8693    -2.6496     0.0055 C.3     
  26 C26            6.3580    -2.9972     0.0886 C.3     
  27 O27            6.7995    -3.4873    -1.1803 O.3     
  28 C28            6.0888    -4.6442    -1.6297 C.3     
  29 C29            4.5974    -4.3132    -1.7301 C.3     
  30 C30            4.3720    -2.2005     1.3810 C.3     
  31 N31           -2.9287    -8.2769     1.5015 N.pl3   
  32 H32            2.2063     0.5265    -1.1351 H       
  33 H33            0.5117     1.5919    -3.2617 H       
  34 H34            0.7395     2.2419    -1.6074 H       
  35 H35            1.4351    -0.5214    -3.9071 H       
  36 H36            2.8151     0.5405    -3.5382 H       
  37 H37            2.7927    -1.1328    -2.9317 H       
  38 H38           -0.9405    -2.8607    -0.5453 H       
  39 H39           -1.4712    -4.1061     1.6711 H       
  40 H40            4.7230    -1.8453    -0.7155 H       
  41 H41            6.9260    -2.1049     0.3518 H       
  42 H42            6.5109    -3.7639     0.8481 H       
  43 H43            6.4621    -4.9430    -2.6092 H       
  44 H44            6.2339    -5.4588    -0.9201 H       
  45 H45            4.0446    -5.2077    -2.0172 H       
  46 H46            4.4468    -3.5356    -2.4789 H       
  47 H47            4.5484    -2.9935     2.1078 H       
  48 H48            4.9088    -1.3022     1.6860 H       
  49 H49            3.3046    -1.9860     1.3292 H       
  50 H50           -2.8480    -9.1723     1.1372 H       
  51 H51           -3.6280    -8.0754     2.1428 H       
@<TRIPOS>BOND
   1    1    2 1
   2    1    5 1
   3    2    3 am
   4    2    6 2
   5    3    4 1
   6    3   12 1
   7    4    5 1
   8    4    7 1
   9    4   32 1
  10    5   33 1
  11    5   34 1
  12    7   35 1
  13    7   36 1
  14    7   37 1
  15    8    9 ar
  16    8   13 ar
  17    8   24 1
  18    9   10 ar
  19   10   11 ar
  20   10   17 1
  21   11   12 ar
  22   11   38 1
  23   12   13 ar
  24   14   15 ar
  25   14   19 ar
  26   14   31 1
  27   15   16 ar
  28   16   17 ar
  29   16   20 1
  30   17   18 ar
  31   18   19 ar
  32   18   39 1
  33   20   21 1
  34   20   22 1
  35   20   23 1
  36   24   25 1
  37   24   29 1
  38   25   26 1
  39   25   30 1
  40   25   40 1
  41   26   27 1
  42   26   41 1
  43   26   42 1
  44   27   28 1
  45   28   29 1
  46   28   43 1
  47   28   44 1
  48   29   45 1
  49   29   46 1
  50   30   47 1
  51   30   48 1
  52   30   49 1
  53   31   50 1
  54   31   51 1

#	End of record

