#	Name: ASD01810907
#	Creating user name:	WinNT
#	Creation time:	15. 06. 2019 19:25

#	Modifying user name:	WinNT
#	Modification time:	15. 06. 2019 19:25

#	Program:	/corina/corina34_cracker 3.40 0067  02.08.2006

@<TRIPOS>MOLECULE
ASD01810907
  46   47    0    0    0
SMALL
NO_CHARGES


@<TRIPOS>ATOM
   1 N1             0.0818     1.5096     0.3216 N.am    
   2 C2            -0.0224     0.0716     0.0386 C.3     
   3 C3             0.8980    -0.6879     0.9992 C.3     
   4 C4             2.3177    -0.1270     0.8895 C.3     
   5 C5             2.3165     1.3505     1.2885 C.3     
   6 C6             1.4121     2.1331     0.3312 C.3     
   7 C7            -1.0225     2.2439     0.5622 C.2     
   8 O8            -2.1230     1.7421     0.4457 O.2     
   9 O9            -0.9062     3.5333     0.9316 O.3     
  10 C10           -1.4676    -0.3878     0.2422 C.3     
  11 C11            3.2331    -0.8945     1.8082 C.ar    
  12 C12            4.3190    -1.5753     1.2871 C.ar    
  13 C13            5.1611    -2.2798     2.1223 C.ar    
  14 C14            4.9156    -2.3044     3.4967 C.ar    
  15 C15            3.8182    -1.6147     4.0159 C.ar    
  16 C16            2.9871    -0.9103     3.1697 C.ar    
  17 C17            5.7852    -3.0340     4.3696 C.1     
  18 N18            6.4751    -3.6128     5.0622 N.1     
  19 C19           -2.1377     4.2632     1.1742 C.3     
  20 C20           -2.9210     3.5825     2.2985 C.3     
  21 C21           -1.8070     5.7006     1.5808 C.3     
  22 C22           -2.9829     4.2755    -0.1012 C.3     
  23 H23            0.2832    -0.1216    -0.9897 H       
  24 H24            0.5371    -0.5673     2.0206 H       
  25 H25            0.9036    -1.7460     0.7374 H       
  26 H26            2.6687    -0.2255    -0.1377 H       
  27 H27            1.9422     1.4519     2.3072 H       
  28 H28            3.3318     1.7432     1.2326 H       
  29 H29            1.8347     2.1080    -0.6732 H       
  30 H30            1.3292     3.1660     0.6693 H       
  31 H31           -2.1027     0.0621    -0.5209 H       
  32 H32           -1.5182    -1.4738     0.1631 H       
  33 H33           -1.8113    -0.0790     1.2294 H       
  34 H34            4.5077    -1.5554     0.2239 H       
  35 H35            6.0079    -2.8114     1.7141 H       
  36 H36            3.6226    -1.6296     5.0779 H       
  37 H37            2.1402    -0.3730     3.5704 H       
  38 H38           -2.3188     3.5737     3.2070 H       
  39 H39           -3.8455     4.1304     2.4806 H       
  40 H40           -3.1565     2.5585     2.0088 H       
  41 H41           -1.2491     6.1856     0.7798 H       
  42 H42           -2.7316     6.2485     1.7629 H       
  43 H43           -1.2049     5.6918     2.4893 H       
  44 H44           -3.2185     3.2515    -0.3908 H       
  45 H45           -3.9074     4.8235     0.0810 H       
  46 H46           -2.4249     4.7605    -0.9021 H       
@<TRIPOS>BOND
   1    1    2 1
   2    1    6 1
   3    1    7 am
   4    2    3 1
   5    2   10 1
   6    2   23 1
   7    3    4 1
   8    3   24 1
   9    3   25 1
  10    4    5 1
  11    4   11 1
  12    4   26 1
  13    5    6 1
  14    5   27 1
  15    5   28 1
  16    6   29 1
  17    6   30 1
  18    7    8 2
  19    7    9 1
  20    9   19 1
  21   10   31 1
  22   10   32 1
  23   10   33 1
  24   11   12 ar
  25   11   16 ar
  26   12   13 ar
  27   12   34 1
  28   13   14 ar
  29   13   35 1
  30   14   15 ar
  31   14   17 1
  32   15   16 ar
  33   15   36 1
  34   16   37 1
  35   17   18 3
  36   19   20 1
  37   19   22 1
  38   19   21 1
  39   20   38 1
  40   20   39 1
  41   20   40 1
  42   21   41 1
  43   21   42 1
  44   21   43 1
  45   22   44 1
  46   22   45 1
  47   22   46 1

#	End of record

