#	Name: ASD01811318
#	Creating user name:	WinNT
#	Creation time:	15. 06. 2019 19:26

#	Modifying user name:	WinNT
#	Modification time:	15. 06. 2019 19:26

#	Program:	/corina/corina34_cracker 3.40 0067  02.08.2006

@<TRIPOS>MOLECULE
ASD01811318
  56   58    0    0    0
SMALL
NO_CHARGES


@<TRIPOS>ATOM
   1 N1             1.8064     4.9550     1.5398 N.am    
   2 C2             0.5964     5.5484     1.5500 C.2     
   3 O3            -0.2786     5.1576     0.8018 O.2     
   4 N4             0.3563     6.5750     2.3896 N.am    
   5 C5            -0.9591     7.2200     2.4007 C.3     
   6 C6            -0.9659     8.3466     3.4358 C.3     
   7 C7            -2.2954     9.1001     3.3607 C.3     
   8 C8            -0.7940     7.7539     4.8358 C.3     
   9 C9             2.0231     3.8268     0.7494 C.ar    
  10 C10            3.3004     3.2781     0.6499 C.ar    
  11 C11            3.4622     2.1470    -0.1561 C.ar    
  12 C12            2.3309     1.6434    -0.8074 C.ar    
  13 N13            1.1650     2.2362    -0.6478 N.ar    
  14 N14            1.0152     3.2707     0.0958 N.ar    
  15 C15            4.7872     1.5036    -0.3154 C.2     
  16 O16            4.8877     0.2946    -0.2472 O.2     
  17 N17            5.8811     2.2594    -0.5360 N.am    
  18 C18            5.7915     3.7259    -0.5300 C.3     
  19 C19            6.3799     4.2612    -1.8392 C.3     
  20 C20            7.8002     3.7191    -2.0148 C.3     
  21 C21            7.7588     2.1912    -2.0930 C.3     
  22 C22            7.1871     1.6325    -0.7811 C.3     
  23 C23            8.3948     4.2708    -3.2848 C.ar    
  24 C24            9.5488     5.0321    -3.2309 C.ar    
  25 C25           10.0985     5.5403    -4.3896 C.ar    
  26 C26            9.4876     5.2844    -5.6189 C.ar    
  27 C27            8.3234     4.5150    -5.6660 C.ar    
  28 C28            7.7872     4.0090    -4.5001 C.ar    
  29 C29           10.0524     5.8091    -6.8257 C.1     
  30 N30           10.5003     6.2254    -7.7831 N.1     
  31 H31            2.5277     5.3151     2.0792 H       
  32 H32            1.0544     6.8868     2.9865 H       
  33 H33           -1.1700     7.6320     1.4138 H       
  34 H34           -1.7219     6.4852     2.6583 H       
  35 H35           -0.1462     9.0347     3.2294 H       
  36 H36           -3.1152     8.4120     3.5672 H       
  37 H37           -2.3003     9.9027     4.0982 H       
  38 H38           -2.4179     9.5223     2.3633 H       
  39 H39           -1.6137     7.0658     5.0423 H       
  40 H40            0.1532     7.2171     4.8893 H       
  41 H41           -0.7989     8.5566     5.5733 H       
  42 H42            4.1370     3.7122     1.1772 H       
  43 H43            2.4132     0.7716    -1.4394 H       
  44 H44            4.7473     4.0278    -0.4482 H       
  45 H45            6.3559     4.1230     0.3137 H       
  46 H46            5.7607     3.9371    -2.6757 H       
  47 H47            6.4076     5.3504    -1.8070 H       
  48 H48            8.4124     4.0228    -1.1656 H       
  49 H49            7.1266     1.8866    -2.9271 H       
  50 H50            8.7680     1.8070    -2.2414 H       
  51 H51            7.8631     1.8623     0.0425 H       
  52 H52            7.0641     0.5527    -0.8651 H       
  53 H53           10.0203     5.2293    -2.2794 H       
  54 H54           10.9989     6.1350    -4.3460 H       
  55 H55            7.8459     4.3133    -6.6135 H       
  56 H56            6.8891     3.4103    -4.5355 H       
@<TRIPOS>BOND
   1    1    2 am
   2    1    9 1
   3    1   31 1
   4    2    3 2
   5    2    4 am
   6    4    5 1
   7    4   32 1
   8    5    6 1
   9    5   33 1
  10    5   34 1
  11    6    7 1
  12    6    8 1
  13    6   35 1
  14    7   36 1
  15    7   37 1
  16    7   38 1
  17    8   39 1
  18    8   40 1
  19    8   41 1
  20    9   10 ar
  21    9   14 ar
  22   10   11 ar
  23   10   42 1
  24   11   12 ar
  25   11   15 1
  26   12   13 ar
  27   12   43 1
  28   13   14 ar
  29   15   16 2
  30   15   17 am
  31   17   18 1
  32   17   22 1
  33   18   19 1
  34   18   44 1
  35   18   45 1
  36   19   20 1
  37   19   46 1
  38   19   47 1
  39   20   21 1
  40   20   23 1
  41   20   48 1
  42   21   22 1
  43   21   49 1
  44   21   50 1
  45   22   51 1
  46   22   52 1
  47   23   24 ar
  48   23   28 ar
  49   24   25 ar
  50   24   53 1
  51   25   26 ar
  52   25   54 1
  53   26   27 ar
  54   26   29 1
  55   27   28 ar
  56   27   55 1
  57   28   56 1
  58   29   30 3

#	End of record

