#	Name: ASD02560375
#	Creating user name:	WinNT
#	Creation time:	15. 06. 2019 20:25

#	Modifying user name:	WinNT
#	Modification time:	15. 06. 2019 20:25

#	Program:	/corina/corina34_cracker 3.40 0067  02.08.2006

@<TRIPOS>MOLECULE
ASD02560375
  45   48    0    0    0
SMALL
NO_CHARGES


@<TRIPOS>ATOM
   1 C1             0.0004     1.1794     0.4029 C.2     
   2 C2             0.0669    -0.2151     0.2320 C.2     
   3 C3             1.2604    -0.8315     0.1205 C.2     
   4 N4             2.4244    -0.1117     0.1711 N.pl3   
   5 C5             2.3908     1.2544     0.3370 C.2     
   6 C6             1.1458     1.9092     0.4553 C.2     
   7 C7             3.7373    -0.4813     0.0856 C.2     
   8 C8             4.4871     0.6787     0.2023 C.2     
   9 N9             3.6319     1.7106     0.3534 N.2     
  10 C10            5.9524     0.7683     0.1674 C.2     
  11 N11            4.2266    -1.7720    -0.0850 N.3     
  12 C12            3.1478    -2.7628     0.0252 C.3     
  13 C13            2.4665    -2.9284    -1.3347 C.3     
  14 C14            7.9264     2.0431     0.9769 C.3     
  15 C15            6.6255     2.1163     0.1793 C.3     
  16 C16            3.7317    -4.1053     0.4699 C.3     
  17 C17            2.6080    -5.1373     0.5847 C.3     
  18 C18            1.9268    -5.3029    -0.7752 C.3     
  19 C19            1.3429    -3.9604    -1.2200 C.3     
  20 C20            6.6959    -0.3560     0.1304 C.2     
  21 C21            8.1570    -0.2614     0.1406 C.2     
  22 C22            8.7487     0.8686     0.5219 C.2     
  23 Br23           7.0217     2.6641    -1.6668 Br      
  24 H24           -0.9583     1.6694     0.4877 H       
  25 H25           -0.8431    -0.7951     0.1904 H       
  26 H26            1.2991    -1.9029    -0.0097 H       
  27 H27            1.1038     2.9805     0.5856 H       
  28 H28            4.7113    -1.8615    -0.9654 H       
  29 H29            2.4165    -2.4237     0.7589 H       
  30 H30            2.0505    -1.9721    -1.6516 H       
  31 H31            3.1978    -3.2676    -2.0685 H       
  32 H32            8.4945     2.9611     0.8264 H       
  33 H33            7.6950     1.9334     2.0363 H       
  34 H34            5.9608     2.8485     0.6376 H       
  35 H35            4.4629    -4.4444    -0.2638 H       
  36 H36            4.2170    -3.9873     1.4388 H       
  37 H37            3.0240    -6.0937     0.9015 H       
  38 H38            1.8768    -4.7982     1.3184 H       
  39 H39            2.6580    -5.6420    -1.5090 H       
  40 H40            1.1262    -6.0381    -0.6935 H       
  41 H41            0.6116    -3.6213    -0.4862 H       
  42 H42            0.8575    -4.0784    -2.1888 H       
  43 H43            6.2156    -1.3226     0.0938 H       
  44 H44            8.7549    -1.1087    -0.1611 H       
  45 H45            9.8262     0.9409     0.5080 H       
@<TRIPOS>BOND
   1    1    2 1
   2    1    6 2
   3    1   24 1
   4    2    3 2
   5    2   25 1
   6    3    4 1
   7    3   26 1
   8    4    5 1
   9    4    7 1
  10    5    6 1
  11    5    9 2
  12    6   27 1
  13    7    8 2
  14    7   11 1
  15    8    9 1
  16    8   10 1
  17   10   20 2
  18   10   15 1
  19   11   12 1
  20   11   28 1
  21   12   16 1
  22   12   13 1
  23   12   29 1
  24   13   19 1
  25   13   30 1
  26   13   31 1
  27   14   15 1
  28   14   22 1
  29   14   32 1
  30   14   33 1
  31   15   23 1
  32   15   34 1
  33   16   17 1
  34   16   35 1
  35   16   36 1
  36   17   18 1
  37   17   37 1
  38   17   38 1
  39   18   19 1
  40   18   39 1
  41   18   40 1
  42   19   41 1
  43   19   42 1
  44   20   21 1
  45   20   43 1
  46   21   22 2
  47   21   44 1
  48   22   45 1

#	End of record

