#	Name: ASD00431226
#	Creating user name:	WinNT
#	Creation time:	15. 06. 2019 18:35

#	Modifying user name:	WinNT
#	Modification time:	15. 06. 2019 18:35

#	Program:	/corina/corina34_cracker 3.40 0067  02.08.2006

@<TRIPOS>MOLECULE
ASD00431226
  48   50    0    0    0
SMALL
NO_CHARGES


@<TRIPOS>ATOM
   1 C1             0.2504     1.9136    -0.0550 C.2     
   2 C2             0.2650     0.4114    -0.1750 C.3     
   3 O3             1.2939     2.5247     0.0375 O.2     
   4 N4            -0.9220     2.5783    -0.0559 N.am    
   5 C5            -0.9362     4.0386     0.0608 C.3     
   6 C6            -0.7492     4.6627    -1.3236 C.3     
   7 O7            -3.4648     3.9822     0.3494 O.3     
   8 N8            -4.3428     4.5380     0.9676 N.2     
   9 C9            -3.8579     5.4763     1.7474 C.2     
  10 C10           -2.4468     5.4646     1.5475 C.2     
  11 C11           -2.2550     4.4836     0.6384 C.2     
  12 S12           -3.9431     7.6177     3.6852 S.3     
  13 C13           -5.5077     8.0105     4.2508 C.2     
  14 N14           -6.3946     7.2498     3.6866 N.2     
  15 C15           -5.9580     6.3578     2.8248 C.2     
  16 C16           -4.6200     6.3640     2.6489 C.2     
  17 O17           -5.7823     8.9775     5.1582 O.3     
  18 C18           -7.0871     9.2414     5.4347 C.ar    
  19 C19           -7.8640     8.2934     6.0846 C.ar    
  20 C20           -9.1894     8.5616     6.3654 C.ar    
  21 C21           -9.7438     9.7787     5.9976 C.ar    
  22 C22           -8.9671    10.7267     5.3478 C.ar    
  23 C23           -7.6401    10.4609     5.0720 C.ar    
  24 O24          -11.0488    10.0425     6.2737 O.3     
  25 C25          -11.5325    11.3447     5.9387 C.3     
  26 C26          -13.0531    11.2976     5.7756 C.3     
  27 C27          -11.1694    12.3263     7.0547 C.3     
  28 H28            1.2952     0.0558    -0.1608 H       
  29 H29           -0.2817    -0.0252     0.6608 H       
  30 H30           -0.2080     0.1172    -1.1119 H       
  31 H31           -1.7564     2.0899    -0.1339 H       
  32 H32           -0.1260     4.3586     0.7161 H       
  33 H33           -0.7597     5.7492    -1.2367 H       
  34 H34            0.2047     4.3409    -1.7414 H       
  35 H35           -1.5593     4.3427    -1.9788 H       
  36 H36           -1.7033     6.0938     2.0142 H       
  37 H37           -6.6145     5.6779     2.3020 H       
  38 H38           -7.4324     7.3456     6.3707 H       
  39 H39           -9.7943     7.8235     6.8710 H       
  40 H40           -9.3990    11.6742     5.0612 H       
  41 H41           -7.0342    11.2007     4.5701 H       
  42 H42          -11.0768    11.6722     5.0042 H       
  43 H43          -13.5087    10.9701     6.7100 H       
  44 H44          -13.4220    12.2910     5.5200 H       
  45 H45          -13.3117    10.5983     4.9805 H       
  46 H46          -10.0861    12.3599     7.1708 H       
  47 H47          -11.5383    13.3197     6.7991 H       
  48 H48          -11.6251    11.9988     7.9891 H       
@<TRIPOS>BOND
   1    1    2 1
   2    1    3 2
   3    1    4 am
   4    2   28 1
   5    2   29 1
   6    2   30 1
   7    4    5 1
   8    4   31 1
   9    5    6 1
  10    5   11 1
  11    5   32 1
  12    6   33 1
  13    6   34 1
  14    6   35 1
  15    7    8 1
  16    7   11 1
  17    8    9 2
  18    9   10 1
  19    9   16 1
  20   10   11 2
  21   10   36 1
  22   12   13 1
  23   12   16 1
  24   13   14 2
  25   13   17 1
  26   14   15 1
  27   15   16 2
  28   15   37 1
  29   17   18 1
  30   18   19 ar
  31   18   23 ar
  32   19   20 ar
  33   19   38 1
  34   20   21 ar
  35   20   39 1
  36   21   22 ar
  37   21   24 1
  38   22   23 ar
  39   22   40 1
  40   23   41 1
  41   24   25 1
  42   25   26 1
  43   25   27 1
  44   25   42 1
  45   26   43 1
  46   26   44 1
  47   26   45 1
  48   27   46 1
  49   27   47 1
  50   27   48 1

#	End of record

