#	Name: ASD01870666
#	Creating user name:	WinNT
#	Creation time:	15. 06. 2019 19:39

#	Modifying user name:	WinNT
#	Modification time:	15. 06. 2019 19:39

#	Program:	/corina/corina34_cracker 3.40 0067  02.08.2006

@<TRIPOS>MOLECULE
ASD01870666
  43   45    0    0    0
SMALL
NO_CHARGES


@<TRIPOS>ATOM
   1 C1            -0.0169     1.3976     0.0097 C.ar    
   2 C2             0.0021    -0.0041     0.0020 C.ar    
   3 C3             1.2182    -0.6678    -0.0131 C.ar    
   4 C4             2.4237     0.0563    -0.0202 C.ar    
   5 C5             2.4223     1.4133    -0.0124 C.ar    
   6 C6             1.2039     2.1181     0.0019 C.ar    
   7 N7             1.1856     3.4544     0.0082 N.ar    
   8 C8             0.0571     4.1220     0.0216 C.ar    
   9 C9            -1.1772     3.4760     0.0303 C.ar    
  10 C10           -1.2316     2.1114     0.0193 C.ar    
  11 C11            1.2486    -2.1451    -0.0213 C.2     
  12 N12            2.4294    -2.7947    -0.0360 N.am    
  13 O13            0.2086    -2.7745    -0.0149 O.2     
  14 C14            2.4595    -4.2594    -0.0442 C.3     
  15 C15           -1.0790     6.1728    -0.7861 C.3     
  16 C16           -0.0029     6.1350     1.4684 C.3     
  17 C17            0.0964     5.6284     0.0281 C.3     
  18 C18           -1.0392     7.7023    -0.7795 C.3     
  19 C19           -1.1384     8.2088     0.6608 C.3     
  20 C20            0.0370     7.6645     1.4750 C.3     
  21 C21            3.9121    -4.7395    -0.0606 C.3     
  22 H22           -0.9229    -0.5616     0.0082 H       
  23 H23            3.3639    -0.4751    -0.0316 H       
  24 H24            3.3575     1.9534    -0.0177 H       
  25 H25           -2.0897     4.0536     0.0421 H       
  26 H26           -2.1795     1.5937     0.0210 H       
  27 H27            3.2592    -2.2925    -0.0412 H       
  28 H28            1.9617    -4.6380     0.8485 H       
  29 H29            1.9449    -4.6285    -0.9314 H       
  30 H30           -1.0083     5.8119    -1.8122 H       
  31 H31           -2.0156     5.8318    -0.3448 H       
  32 H32           -0.9394     5.7940     1.9097 H       
  33 H33            0.8346     5.7472     2.0484 H       
  34 H34            1.0329     5.9694    -0.4133 H       
  35 H35           -0.1026     8.0432    -1.2209 H       
  36 H36           -1.8766     8.0901    -1.3596 H       
  37 H37           -1.1100     9.2984     0.6655 H       
  38 H38           -2.0749     7.8678     1.1021 H       
  39 H39           -0.0337     8.0253     2.5011 H       
  40 H40            0.9735     8.0054     1.0336 H       
  41 H41            3.9346    -5.8292    -0.0667 H       
  42 H42            4.4099    -4.3608    -0.9533 H       
  43 H43            4.4268    -4.3704     0.8266 H       
@<TRIPOS>BOND
   1    1    2 ar
   2    1    6 ar
   3    1   10 ar
   4    2    3 ar
   5    2   22 1
   6    3    4 ar
   7    3   11 1
   8    4    5 ar
   9    4   23 1
  10    5    6 ar
  11    5   24 1
  12    6    7 ar
  13    7    8 ar
  14    8    9 ar
  15    8   17 1
  16    9   10 ar
  17    9   25 1
  18   10   26 1
  19   11   12 am
  20   11   13 2
  21   12   14 1
  22   12   27 1
  23   14   21 1
  24   14   28 1
  25   14   29 1
  26   15   18 1
  27   15   17 1
  28   15   30 1
  29   15   31 1
  30   16   17 1
  31   16   20 1
  32   16   32 1
  33   16   33 1
  34   17   34 1
  35   18   19 1
  36   18   35 1
  37   18   36 1
  38   19   20 1
  39   19   37 1
  40   19   38 1
  41   20   39 1
  42   20   40 1
  43   21   41 1
  44   21   42 1
  45   21   43 1

#	End of record

