#	Name: ASD03240651
#	Creating user name:	WinNT
#	Creation time:	15. 06. 2019 20:35

#	Modifying user name:	WinNT
#	Modification time:	15. 06. 2019 20:35

#	Program:	/corina/corina34_cracker 3.40 0067  02.08.2006

@<TRIPOS>MOLECULE
ASD03240651
  64   70    0    0    0
SMALL
NO_CHARGES


@<TRIPOS>ATOM
   1 C1            -0.0166     1.3755     0.0096 C.ar    
   2 C2             0.0021    -0.0041     0.0020 C.ar    
   3 N3             1.1422    -0.6683    -0.0058 N.ar    
   4 C4             2.3145    -0.0481    -0.0058 C.ar    
   5 C5             2.3702     1.3442    -0.0124 C.ar    
   6 C6             1.1860     2.0698     0.0018 C.ar    
   7 N7             3.4820    -0.8058     0.0220 N.pl3   
   8 C8             4.3592    -0.7194     1.0997 C.ar    
   9 C9             4.9951     0.4890     1.4037 C.ar    
  10 C10            4.7636     1.6835     0.5621 C.2     
  11 N11            3.5939     2.0276    -0.0512 N.pl3   
  12 C12            4.6051    -1.8391     1.8830 C.ar    
  13 C13            5.4648    -1.7537     2.9615 C.ar    
  14 C14            6.0861    -0.5558     3.2700 C.ar    
  15 C15            5.8559     0.5654     2.4984 C.ar    
  16 N16            5.6750     2.5942     0.2851 N.2     
  17 C17            5.1445     3.5400    -0.5054 C.2     
  18 C18            3.8223     3.2039    -0.7365 C.2     
  19 C19            2.8494     3.9541    -1.5540 C.ar    
  20 C20            2.7502     5.3420    -1.4292 C.ar    
  21 C21            2.0271     3.2804    -2.4605 C.ar    
  22 C22            1.1204     3.9880    -3.2216 C.ar    
  23 C23            1.0243     5.3622    -3.0893 C.ar    
  24 C24            1.8389     6.0367    -2.1968 C.ar    
  25 C25            5.8487     4.7304    -1.0361 C.ar    
  26 C26            0.0317     6.1284    -3.9252 C.3     
  27 C27            6.8182     5.3703    -0.2661 C.ar    
  28 N28           -1.0271     5.2742    -4.4794 N.3     
  29 C29           -0.4975     7.4002    -3.2415 C.3     
  30 C30           -0.4010     8.0842    -4.6155 C.3     
  31 C31            0.6862     7.0540    -4.9643 C.3     
  32 C32            7.4730     6.4825    -0.7686 C.ar    
  33 C33            7.1630     6.9574    -2.0356 C.ar    
  34 C34            6.2013     6.3233    -2.8004 C.ar    
  35 C35            5.5475     5.2111    -2.3108 C.ar    
  36 O36            8.4191     7.1093    -0.0209 O.3     
  37 C37            9.0542     8.2501    -0.6016 C.3     
  38 H38           -0.9556     1.9091     0.0170 H       
  39 H39           -0.9306    -0.5486     0.0028 H       
  40 H40            1.2002     3.1497     0.0064 H       
  41 H41            3.6863    -1.4002    -0.7168 H       
  42 H42            4.1239    -2.7773     1.6495 H       
  43 H43            5.6536    -2.6275     3.5675 H       
  44 H44            6.7526    -0.4980     4.1178 H       
  45 H45            6.3419     1.4988     2.7410 H       
  46 H46            3.3853     5.8697    -0.7331 H       
  47 H47            2.1016     2.2080    -2.5653 H       
  48 H48            0.4841     3.4686    -3.9228 H       
  49 H49            1.7585     7.1092    -2.0987 H       
  50 H50            7.0579     5.0002     0.7198 H       
  51 H51           -0.6358     4.4657    -4.9392 H       
  52 H52           -1.6830     5.0006    -3.7631 H       
  53 H53           -1.5185     7.3047    -2.8721 H       
  54 H54            0.1854     7.8133    -2.4992 H       
  55 H55           -1.3048     7.9858    -5.2167 H       
  56 H56           -0.0324     9.1089    -4.5681 H       
  57 H57            1.6927     7.3725    -4.6930 H       
  58 H58            0.6207     6.6790    -5.9857 H       
  59 H59            7.6745     7.8253    -2.4251 H       
  60 H60            5.9641     6.6971    -3.7855 H       
  61 H61            4.7968     4.7181    -2.9106 H       
  62 H62            9.7859     8.6540     0.0982 H       
  63 H63            9.5566     7.9563    -1.5232 H       
  64 H64            8.3047     9.0100    -0.8226 H       
@<TRIPOS>BOND
   1    1    2 ar
   2    1    6 ar
   3    1   38 1
   4    2    3 ar
   5    2   39 1
   6    3    4 ar
   7    4    5 ar
   8    4    7 1
   9    5    6 ar
  10    5   11 1
  11    6   40 1
  12    7    8 1
  13    7   41 1
  14    8    9 ar
  15    8   12 ar
  16    9   10 1
  17    9   15 ar
  18   10   11 1
  19   10   16 2
  20   11   18 1
  21   12   13 ar
  22   12   42 1
  23   13   14 ar
  24   13   43 1
  25   14   15 ar
  26   14   44 1
  27   15   45 1
  28   16   17 1
  29   17   18 2
  30   17   25 1
  31   18   19 1
  32   19   20 ar
  33   19   21 ar
  34   20   24 ar
  35   20   46 1
  36   21   22 ar
  37   21   47 1
  38   22   23 ar
  39   22   48 1
  40   23   24 ar
  41   23   26 1
  42   24   49 1
  43   25   27 ar
  44   25   35 ar
  45   26   29 1
  46   26   28 1
  47   26   31 1
  48   27   32 ar
  49   27   50 1
  50   28   51 1
  51   28   52 1
  52   29   30 1
  53   29   53 1
  54   29   54 1
  55   30   31 1
  56   30   55 1
  57   30   56 1
  58   31   57 1
  59   31   58 1
  60   32   33 ar
  61   32   36 1
  62   33   34 ar
  63   33   59 1
  64   34   35 ar
  65   34   60 1
  66   35   61 1
  67   36   37 1
  68   37   62 1
  69   37   63 1
  70   37   64 1

#	End of record

