#	Name: ASD05430068
#	Creating user name:	WinNT
#	Creation time:	15. 06. 2019 20:59

#	Modifying user name:	WinNT
#	Modification time:	15. 06. 2019 20:59

#	Program:	/corina/corina34_cracker 3.40 0067  02.08.2006

@<TRIPOS>MOLECULE
ASD05430068
  72   77    0    0    0
SMALL
NO_CHARGES


@<TRIPOS>ATOM
   1 C1             0.0603     1.1741     0.4071 C.ar    
   2 C2             0.0203    -0.0138    -0.3220 C.ar    
   3 C3             1.1658    -0.4867    -0.9490 C.ar    
   4 C4             2.3475     0.2156    -0.8534 C.ar    
   5 C5             2.3953     1.4081    -0.1238 C.ar    
   6 C6             1.2419     1.8842     0.5072 C.ar    
   7 C7             4.8669    -0.0025     0.2153 C.3     
   8 C8             4.8285     1.4999     0.0679 C.2     
   9 C9             3.6566     2.1594    -0.0200 C.2     
  10 C10            6.2205    -0.4637     0.7519 C.3     
  11 C11            6.8354     0.5742     1.6930 C.3     
  12 N12            7.0788     1.8125     0.9528 N.pl3   
  13 C13            6.1095     2.2213     0.0236 C.2     
  14 N14           -1.1793    -0.7331    -0.4219 N.pl3   
  15 C15           -1.7530    -1.2045    -1.5740 C.2     
  16 C16           -2.8888    -1.8332    -1.2153 C.2     
  17 N17           -3.0098    -1.7508     0.1178 N.2     
  18 C18           -1.9889    -1.0992     0.6052 C.2     
  19 C19           -3.8564    -2.5119    -2.1502 C.3     
  20 C20           -0.9509     2.8599     1.7450 C.3     
  21 O21           -1.0644     1.6367     1.0149 O.3     
  22 C22            8.2660     2.6349     1.1725 C.3     
  23 C23            8.7590     3.1654    -0.1787 C.3     
  24 N24            7.6314     3.7291    -0.9247 N.pl3   
  25 N25            6.3565     3.1567    -0.8352 N.2     
  26 C26            7.9187     3.7923     2.0729 C.ar    
  27 C27            8.8905     4.7114     2.4224 C.ar    
  28 C28            6.6272     3.9374     2.5442 C.ar    
  29 C29            6.3073     4.9990     3.3693 C.ar    
  30 C30            7.2811     5.9171     3.7242 C.ar    
  31 C31            8.5731     5.7734     3.2477 C.ar    
  32 F32            6.9695     6.9552     4.5307 F       
  33 C33            9.3628     1.7885     1.8217 C.3     
  34 C34            6.0355    -1.7813     1.5158 C.3     
  35 C35            5.5084    -2.8474     0.5509 C.3     
  36 C36            6.4846    -2.9924    -0.6194 C.3     
  37 O37            6.6424    -1.7276    -1.2656 O.3     
  38 C38            7.1750    -0.7041    -0.4230 C.3     
  39 H39            1.1303    -1.4072    -1.5127 H       
  40 H40            3.2369    -0.1549    -1.3415 H       
  41 H41            1.2742     2.8044     1.0715 H       
  42 H42            4.0828    -0.3149     0.9049 H       
  43 H43            4.6916    -0.4624    -0.7573 H       
  44 H44            3.6429     3.2393    -0.0142 H       
  45 H45            6.1487     0.7712     2.5162 H       
  46 H46            7.7780     0.1946     2.0874 H       
  47 H47           -1.3685    -1.0928    -2.5770 H       
  48 H48           -1.8205    -0.8810     1.6494 H       
  49 H49           -3.5701    -3.5563    -2.2740 H       
  50 H50           -4.8624    -2.4579    -1.7340 H       
  51 H51           -3.8367    -2.0125    -3.1189 H       
  52 H52           -1.9177     3.1152     2.1787 H       
  53 H53           -0.2156     2.7410     2.5408 H       
  54 H54           -0.6327     3.6563     1.0723 H       
  55 H55            9.5083     3.9396    -0.0134 H       
  56 H56            9.2006     2.3490    -0.7501 H       
  57 H57            7.7693     4.5076    -1.4866 H       
  58 H58            9.8983     4.5991     2.0505 H       
  59 H59            5.8679     3.2212     2.2672 H       
  60 H60            5.2982     5.1125     3.7368 H       
  61 H61            9.3335     6.4888     3.5241 H       
  62 H62            9.6152     0.9555     1.1655 H       
  63 H63           10.2477     2.4036     1.9849 H       
  64 H64            9.0068     1.4033     2.7772 H       
  65 H65            6.9928    -2.1023     1.9264 H       
  66 H66            5.3200    -1.6363     2.3252 H       
  67 H67            5.4215    -3.8003     1.0730 H       
  68 H68            4.5306    -2.5467     0.1746 H       
  69 H69            7.4505    -3.3334    -0.2470 H       
  70 H70            6.0926    -3.7182    -1.3320 H       
  71 H71            7.2860     0.2169    -0.9955 H       
  72 H72            8.1480    -1.0157    -0.0431 H       
@<TRIPOS>BOND
   1    1    2 ar
   2    1    6 ar
   3    1   21 1
   4    2    3 ar
   5    2   14 1
   6    3    4 ar
   7    3   39 1
   8    4    5 ar
   9    4   40 1
  10    5    6 ar
  11    5    9 1
  12    6   41 1
  13    7    8 1
  14    7   10 1
  15    7   42 1
  16    7   43 1
  17    8    9 2
  18    8   13 1
  19    9   44 1
  20   10   11 1
  21   10   34 1
  22   10   38 1
  23   11   12 1
  24   11   45 1
  25   11   46 1
  26   12   13 1
  27   12   22 1
  28   13   25 2
  29   14   15 1
  30   14   18 1
  31   15   16 2
  32   15   47 1
  33   16   17 1
  34   16   19 1
  35   17   18 2
  36   18   48 1
  37   19   49 1
  38   19   50 1
  39   19   51 1
  40   20   21 1
  41   20   52 1
  42   20   53 1
  43   20   54 1
  44   22   23 1
  45   22   26 1
  46   22   33 1
  47   23   24 1
  48   23   55 1
  49   23   56 1
  50   24   25 1
  51   24   57 1
  52   26   27 ar
  53   26   28 ar
  54   27   31 ar
  55   27   58 1
  56   28   29 ar
  57   28   59 1
  58   29   30 ar
  59   29   60 1
  60   30   31 ar
  61   30   32 1
  62   31   61 1
  63   33   62 1
  64   33   63 1
  65   33   64 1
  66   34   35 1
  67   34   65 1
  68   34   66 1
  69   35   36 1
  70   35   67 1
  71   35   68 1
  72   36   37 1
  73   36   69 1
  74   36   70 1
  75   37   38 1
  76   38   71 1
  77   38   72 1

#	End of record

