#	Name: ASD04590209
#	Creating user name:	WinNT
#	Creation time:	15. 06. 2019 20:50

#	Modifying user name:	WinNT
#	Modification time:	15. 06. 2019 20:50

#	Program:	/corina/corina34_cracker 3.40 0067  02.08.2006

@<TRIPOS>MOLECULE
ASD04590209
  45   47    0    0    0
SMALL
NO_CHARGES


@<TRIPOS>ATOM
   1 N1            -0.0153     1.2802     0.0091 N.pl3   
   2 N2             0.0021    -0.0041     0.0020 N.2     
   3 C3             1.2455    -0.4440    -0.0122 C.2     
   4 C4             2.0903     0.6961    -0.0142 C.2     
   5 C5             1.2523     1.7667    -0.0004 C.2     
   6 C6             1.6765    -1.8547    -0.0235 C.2     
   7 N7             0.7571    -2.8402    -0.0200 N.am    
   8 N8             3.4930     0.7146    -0.0275 N.am    
   9 O9             2.8611    -2.1284    -0.0359 O.2     
  10 C10            4.1514     1.8906    -0.0274 C.2     
  11 C11            5.6264     1.9101    -0.0414 C.ar    
  12 O12            3.5296     2.9356    -0.0159 O.2     
  13 C13            1.1851    -4.2412    -0.0312 C.3     
  14 C14            1.4676    -4.6996     1.4009 C.3     
  15 C15            6.3414     1.9129     1.1612 C.ar    
  16 C16            7.7233     1.9313     1.1389 C.ar    
  17 C17            8.3992     1.9473    -0.0677 C.ar    
  18 C18            7.7004     1.9452    -1.2612 C.ar    
  19 C19            6.3184     1.9201    -1.2574 C.ar    
  20 F20            5.6831     1.8982     2.3408 F       
  21 F21            5.6376     1.9176    -2.4243 F       
  22 C22            0.0782    -5.1078    -0.6351 C.3     
  23 C23           -1.1932    -4.9696     0.2048 C.3     
  24 C24           -0.9106    -5.4280     1.6369 C.3     
  25 C25            0.1963    -4.5614     2.2408 C.3     
  26 N26           -2.1313    -5.2953     2.4434 N.3     
  27 H27           -0.8184     1.8242     0.0160 H       
  28 H28            1.5405     2.8076     0.0024 H       
  29 H29           -0.1879    -2.6218    -0.0102 H       
  30 H30            3.9890    -0.1189    -0.0367 H       
  31 H31            2.0908    -4.3397    -0.6296 H       
  32 H32            1.7860    -5.7420     1.3926 H       
  33 H33            2.2562    -4.0822     1.8311 H       
  34 H34            8.2768     1.9335     2.0662 H       
  35 H35            9.4791     1.9620    -0.0779 H       
  36 H36            8.2361     1.9585    -2.1989 H       
  37 H37           -0.1231    -4.7812    -1.6554 H       
  38 H38            0.3966    -6.1502    -0.6434 H       
  39 H39           -1.5116    -3.9272     0.2131 H       
  40 H40           -1.9818    -5.5870    -0.2254 H       
  41 H41           -0.5922    -6.4704     1.6286 H       
  42 H42            0.3975    -4.8880     3.2611 H       
  43 H43           -0.1222    -3.5190     2.2491 H       
  44 H44           -1.9705    -5.5921     3.3942 H       
  45 H45           -2.4830    -4.3500     2.4141 H       
@<TRIPOS>BOND
   1    1    2 1
   2    1    5 1
   3    1   27 1
   4    2    3 2
   5    3    4 1
   6    3    6 1
   7    4    5 2
   8    4    8 1
   9    5   28 1
  10    6    7 am
  11    6    9 2
  12    7   13 1
  13    7   29 1
  14    8   10 am
  15    8   30 1
  16   10   11 1
  17   10   12 2
  18   11   15 ar
  19   11   19 ar
  20   13   22 1
  21   13   14 1
  22   13   31 1
  23   14   25 1
  24   14   32 1
  25   14   33 1
  26   15   16 ar
  27   15   20 1
  28   16   17 ar
  29   16   34 1
  30   17   18 ar
  31   17   35 1
  32   18   19 ar
  33   18   36 1
  34   19   21 1
  35   22   23 1
  36   22   37 1
  37   22   38 1
  38   23   24 1
  39   23   39 1
  40   23   40 1
  41   24   25 1
  42   24   26 1
  43   24   41 1
  44   25   42 1
  45   25   43 1
  46   26   44 1
  47   26   45 1

#	End of record

