#	Name: ASD01190166
#	Creating user name:	WinNT
#	Creation time:	15. 06. 2019 19:07

#	Modifying user name:	WinNT
#	Modification time:	15. 06. 2019 19:07

#	Program:	/corina/corina34_cracker 3.40 0067  02.08.2006

@<TRIPOS>MOLECULE
ASD01190166
  50   53    0    0    0
SMALL
NO_CHARGES


@<TRIPOS>ATOM
   1 C1             0.9895     0.0432     2.5056 C.2     
   2 C2             0.9073     0.5592     1.0921 C.3     
   3 O3             1.5267    -1.0202     2.7327 O.2     
   4 N4             0.4708     0.7660     3.5180 N.am    
   5 N5             1.5437    -0.3989     0.1847 N.pl3   
   6 C6             2.8416    -0.3330    -0.2437 C.2     
   7 C7             3.1053    -1.3619    -1.0646 C.2     
   8 C8             1.8757    -2.1511    -1.1706 C.ar    
   9 C9             1.5248    -3.3133    -1.8605 C.ar    
  10 C10            0.2579    -3.8122    -1.7484 C.ar    
  11 C11           -0.6841    -3.1729    -0.9537 C.ar    
  12 C12           -0.3594    -2.0251    -0.2649 C.ar    
  13 C13            0.9267    -1.5029    -0.3594 C.ar    
  14 C14            4.4173    -1.6503    -1.7476 C.3     
  15 C15            5.4455    -0.5913    -1.3449 C.3     
  16 N16            6.2911    -6.7895    -0.4580 N.pl3   
  17 N17            6.5282    -7.2648    -1.7520 N.2     
  18 C18            6.2237    -6.3497    -2.6274 C.2     
  19 C19            5.7500    -5.1768    -1.8998 C.ar    
  20 C20            5.2925    -3.9118    -2.2858 C.ar    
  21 C21            4.9106    -3.0127    -1.3330 C.ar    
  22 C22            4.9726    -3.3410     0.0158 C.ar    
  23 C23            5.4164    -4.5689     0.4173 C.ar    
  24 C24            5.8126    -5.5075    -0.5325 C.ar    
  25 C25            6.5128    -7.5435     0.7783 C.3     
  26 O26            7.8466    -7.3200     1.2398 O.3     
  27 C27            8.1679    -8.0139     2.4470 C.3     
  28 O28            4.2333    -1.6211    -3.1644 O.3     
  29 F29            5.6256    -0.6199     0.0422 F       
  30 F30            6.6635    -0.8591    -1.9789 F       
  31 F31            4.9876     0.6733    -1.7297 F       
  32 H32           -0.1384     0.6857     0.8117 H       
  33 H33            1.4201     1.5187     1.0252 H       
  34 H34            0.0447     1.6183     3.3368 H       
  35 H35            0.5237     0.4339     4.4278 H       
  36 H36            3.5490     0.4334     0.0368 H       
  37 H37            2.2522    -3.8157    -2.4808 H       
  38 H38           -0.0131    -4.7109    -2.2826 H       
  39 H39           -1.6816    -3.5795    -0.8752 H       
  40 H40           -1.0993    -1.5350     0.3505 H       
  41 H41            6.3075    -6.4422    -3.7002 H       
  42 H42            5.2425    -3.6485    -3.3321 H       
  43 H43            4.6665    -2.6164     0.7558 H       
  44 H44            5.4604    -4.8112     1.4689 H       
  45 H45            5.8051    -7.2118     1.5380 H       
  46 H46            6.3681    -8.6066     0.5864 H       
  47 H47            9.1967    -7.7922     2.7307 H       
  48 H48            7.4945    -7.6920     3.2414 H       
  49 H49            8.0576    -9.0868     2.2897 H       
  50 H50            3.5932    -2.2680    -3.4913 H       
@<TRIPOS>BOND
   1    1    2 1
   2    1    3 2
   3    1    4 am
   4    2    5 1
   5    2   32 1
   6    2   33 1
   7    4   34 1
   8    4   35 1
   9    5    6 1
  10    5   13 1
  11    6    7 2
  12    6   36 1
  13    7    8 1
  14    7   14 1
  15    8    9 ar
  16    8   13 ar
  17    9   10 ar
  18    9   37 1
  19   10   11 ar
  20   10   38 1
  21   11   12 ar
  22   11   39 1
  23   12   13 ar
  24   12   40 1
  25   14   15 1
  26   14   21 1
  27   14   28 1
  28   15   29 1
  29   15   30 1
  30   15   31 1
  31   16   17 1
  32   16   24 1
  33   16   25 1
  34   17   18 2
  35   18   19 1
  36   18   41 1
  37   19   20 ar
  38   19   24 ar
  39   20   21 ar
  40   20   42 1
  41   21   22 ar
  42   22   23 ar
  43   22   43 1
  44   23   24 ar
  45   23   44 1
  46   25   26 1
  47   25   45 1
  48   25   46 1
  49   26   27 1
  50   27   47 1
  51   27   48 1
  52   27   49 1
  53   28   50 1

#	End of record

