#	Name: ASD04590876
#	Creating user name:	WinNT
#	Creation time:	15. 06. 2019 20:51

#	Modifying user name:	WinNT
#	Modification time:	15. 06. 2019 20:51

#	Program:	/corina/corina34_cracker 3.40 0067  02.08.2006

@<TRIPOS>MOLECULE
ASD04590876
  64   69    0    0    0
SMALL
NO_CHARGES


@<TRIPOS>ATOM
   1 N1            -0.0171     1.3229    -0.0118 N.ar    
   2 C2             0.0017    -0.0035    -0.0051 C.ar    
   3 N3             1.1297    -0.6952    -0.0122 N.ar    
   4 C4             2.3048    -0.0728    -0.0266 C.ar    
   5 C5             2.3180     1.3354    -0.0340 C.ar    
   6 C6             1.1079     2.0199    -0.0261 C.ar    
   7 N7             3.6036    -0.5177    -0.0370 N.pl3   
   8 C8             4.4824     0.5537    -0.0512 C.ar    
   9 C9             3.7335     1.7403    -0.0500 C.ar    
  10 C10            5.8713     0.6252    -0.0659 C.ar    
  11 C11            6.4997     1.8521    -0.0787 C.ar    
  12 C12            5.7585     3.0235    -0.0775 C.ar    
  13 C13            4.3811     2.9731    -0.0635 C.ar    
  14 N14           -1.2025    -0.6889     0.0103 N.pl3   
  15 C15           -2.4023     0.0120     0.1313 C.ar    
  16 N16           -2.3785     1.3197     0.3319 N.ar    
  17 C17           -3.4885     2.0231     0.4522 C.ar    
  18 C18           -4.7293     1.4090     0.3721 C.ar    
  19 C19           -4.7939     0.0324     0.1614 C.ar    
  20 C20           -3.6099    -0.6707     0.0340 C.ar    
  21 N21           -5.9023     2.1620     0.5017 N.3     
  22 C22            4.0041    -1.9269    -0.0337 C.3     
  23 C23            3.4041    -2.6438     1.1935 C.3     
  24 C24            3.4411    -2.6379    -1.2768 C.3     
  25 C25            2.5188    -3.7620    -0.7617 C.3     
  26 C26            2.1054    -3.2945     0.6559 C.3     
  27 C27           -5.5950     3.5829     0.7169 C.3     
  28 C28           -6.7469     1.6389     1.5847 C.3     
  29 C29           -8.0515     2.4373     1.6415 C.3     
  30 N30           -7.7442     3.8582     1.8567 N.3     
  31 C31           -6.8996     4.3813     0.7738 C.3     
  32 C32           -8.8085     2.2729     0.3221 C.3     
  33 C33           -6.5849     5.8550     1.0383 C.3     
  34 H34            1.0863     3.0996    -0.0315 H       
  35 H35            6.4581    -0.2815    -0.0670 H       
  36 H36            7.5785     1.9011    -0.0894 H       
  37 H37            6.2620     3.9789    -0.0876 H       
  38 H38            3.8058     3.8871    -0.0629 H       
  39 H39           -1.2111    -1.6561    -0.0630 H       
  40 H40           -3.4300     3.0891     0.6153 H       
  41 H41           -5.7464    -0.4723     0.0948 H       
  42 H42           -3.6229    -1.7380    -0.1303 H       
  43 H43            5.0911    -2.0058    -0.0186 H       
  44 H44            4.0892    -3.4074     1.5619 H       
  45 H45            3.1736    -1.9254     1.9801 H       
  46 H46            2.8700    -1.9344    -1.8826 H       
  47 H47            4.2549    -3.0626    -1.8646 H       
  48 H48            1.6420    -3.8596    -1.4020 H       
  49 H49            3.0608    -4.7062    -0.7091 H       
  50 H50            1.8149    -4.1444     1.2735 H       
  51 H51            1.3001    -2.5619     0.6016 H       
  52 H52           -5.0557     3.7000     1.6569 H       
  53 H53           -4.9794     3.9502    -0.1042 H       
  54 H54           -6.9711     0.5890     1.3962 H       
  55 H55           -6.2207     1.7340     2.5345 H       
  56 H56           -8.6671     2.0700     2.4626 H       
  57 H57           -8.5896     4.4009     1.9501 H       
  58 H58           -7.4258     4.2862    -0.1760 H       
  59 H59           -9.0345     1.2187     0.1619 H       
  60 H60           -9.7375     2.8416     0.3629 H       
  61 H61           -8.1927     2.6413    -0.4984 H       
  62 H62           -6.0579     5.9493     1.9877 H       
  63 H63           -5.9585     6.2427     0.2349 H       
  64 H64           -7.5143     6.4230     1.0807 H       
@<TRIPOS>BOND
   1    1    2 ar
   2    1    6 ar
   3    2    3 ar
   4    2   14 1
   5    3    4 ar
   6    4    5 ar
   7    4    7 1
   8    5    6 ar
   9    5    9 1
  10    6   34 1
  11    7    8 1
  12    7   22 1
  13    8    9 ar
  14    8   10 ar
  15    9   13 ar
  16   10   11 ar
  17   10   35 1
  18   11   12 ar
  19   11   36 1
  20   12   13 ar
  21   12   37 1
  22   13   38 1
  23   14   15 1
  24   14   39 1
  25   15   16 ar
  26   15   20 ar
  27   16   17 ar
  28   17   18 ar
  29   17   40 1
  30   18   19 ar
  31   18   21 1
  32   19   20 ar
  33   19   41 1
  34   20   42 1
  35   21   27 1
  36   21   28 1
  37   22   24 1
  38   22   23 1
  39   22   43 1
  40   23   26 1
  41   23   44 1
  42   23   45 1
  43   24   25 1
  44   24   46 1
  45   24   47 1
  46   25   26 1
  47   25   48 1
  48   25   49 1
  49   26   50 1
  50   26   51 1
  51   27   31 1
  52   27   52 1
  53   27   53 1
  54   28   29 1
  55   28   54 1
  56   28   55 1
  57   29   30 1
  58   29   32 1
  59   29   56 1
  60   30   31 1
  61   30   57 1
  62   31   33 1
  63   31   58 1
  64   32   59 1
  65   32   60 1
  66   32   61 1
  67   33   62 1
  68   33   63 1
  69   33   64 1

#	End of record

