#	Name: ASD01884900
#	Creating user name:	WinNT
#	Creation time:	15. 06. 2019 19:49

#	Modifying user name:	WinNT
#	Modification time:	15. 06. 2019 19:49

#	Program:	/corina/corina34_cracker 3.40 0067  02.08.2006

@<TRIPOS>MOLECULE
ASD01884900
  47   52    0    0    0
SMALL
NO_CHARGES


@<TRIPOS>ATOM
   1 C1            -0.0164     1.3606     0.0095 C.ar    
   2 C2             0.0021    -0.0041     0.0020 C.ar    
   3 C3             1.2155    -0.7017    -0.0134 C.ar    
   4 C4             2.4184    -0.0065    -0.0207 C.ar    
   5 C5             2.4033     1.3876    -0.0131 C.ar    
   6 C6             1.1766     2.0775     0.0020 C.ar    
   7 C7             3.4481     2.4159    -0.0167 C.2     
   8 C8             2.8285     3.6060    -0.0044 C.2     
   9 N9             1.4697     3.4254     0.0070 N.pl3   
  10 C10            1.2171    -2.1834    -0.0213 C.2     
  11 C11            0.7031    -2.8766    -1.1021 C.2     
  12 C12            1.7505    -2.9038     1.0750 C.2     
  13 C13            1.7515    -4.2498     1.0658 C.2     
  14 N14            1.2419    -4.9430     0.0054 N.pl3   
  15 C15            0.7193    -4.2827    -1.0801 C.2     
  16 Cl16           0.0473    -2.0240    -2.4647 Cl      
  17 C17            1.1144    -6.2702    -0.2705 C.2     
  18 N18            0.5472    -6.3761    -1.4445 N.2     
  19 N19            0.3098    -5.2095    -1.9326 N.2     
  20 C20            0.5233     4.4528     0.0214 C.ar    
  21 C21            1.5482    -7.4097     0.6152 C.3     
  22 C22            0.4718    -8.3928     1.0797 C.3     
  23 C23            1.4960    -8.8211     0.0269 C.3     
  24 C24           -0.5346     4.4630    -0.8858 C.ar    
  25 C25           -1.4486     5.4955    -0.8384 C.ar    
  26 N26           -1.3296     6.4639     0.0500 N.ar    
  27 C27           -0.3422     6.4896     0.9253 C.ar    
  28 C28            0.6094     5.4913     0.9474 C.ar    
  29 C29           -0.2566     7.6210     1.9171 C.3     
  30 H30           -0.9600     1.8860     0.0168 H       
  31 H31           -0.9290    -0.5513     0.0084 H       
  32 H32            3.3566    -0.5412    -0.0319 H       
  33 H33            4.5149     2.2474    -0.0268 H       
  34 H34            3.3265     4.5643    -0.0031 H       
  35 H35            2.1582    -2.3713     1.9215 H       
  36 H36            2.1609    -4.7884     1.9076 H       
  37 H37            2.3568    -7.1834     1.3102 H       
  38 H38            0.5724    -8.8135     2.0802 H       
  39 H39           -0.5502    -8.2153     0.7447 H       
  40 H40            1.1479    -8.9255    -1.0007 H       
  41 H41            2.2704    -9.5237     0.3347 H       
  42 H42           -0.6374     3.6738    -1.6159 H       
  43 H43           -2.2716     5.5116    -1.5375 H       
  44 H44            1.4147     5.5183     1.6665 H       
  45 H45           -0.8091     7.3565     2.8187 H       
  46 H46            0.7876     7.8032     2.1713 H       
  47 H47           -0.6863     8.5218     1.4788 H       
@<TRIPOS>BOND
   1    1    2 ar
   2    1    6 ar
   3    1   30 1
   4    2    3 ar
   5    2   31 1
   6    3    4 ar
   7    3   10 1
   8    4    5 ar
   9    4   32 1
  10    5    6 ar
  11    5    7 1
  12    6    9 1
  13    7    8 2
  14    7   33 1
  15    8    9 1
  16    8   34 1
  17    9   20 1
  18   10   11 2
  19   10   12 1
  20   11   16 1
  21   11   15 1
  22   12   13 2
  23   12   35 1
  24   13   14 1
  25   13   36 1
  26   14   15 1
  27   14   17 1
  28   15   19 2
  29   17   18 2
  30   17   21 1
  31   18   19 1
  32   20   24 ar
  33   20   28 ar
  34   21   22 1
  35   21   23 1
  36   21   37 1
  37   22   23 1
  38   22   38 1
  39   22   39 1
  40   23   40 1
  41   23   41 1
  42   24   25 ar
  43   24   42 1
  44   25   26 ar
  45   25   43 1
  46   26   27 ar
  47   27   28 ar
  48   27   29 1
  49   28   44 1
  50   29   45 1
  51   29   46 1
  52   29   47 1

#	End of record

