#	Name: ASD01881945
#	Creating user name:	WinNT
#	Creation time:	15. 06. 2019 19:43

#	Modifying user name:	WinNT
#	Modification time:	15. 06. 2019 19:43

#	Program:	/corina/corina34_cracker 3.40 0067  02.08.2006

@<TRIPOS>MOLECULE
ASD01881945
  51   53    0    0    0
SMALL
NO_CHARGES


@<TRIPOS>ATOM
   1 C1            -0.0162     1.3436     0.0094 C.2     
   2 N2             0.0021    -0.0041     0.0020 N.am    
   3 O3             1.0277     1.9654     0.0028 O.2     
   4 O4            -1.1912     2.0008     0.0186 O.3     
   5 C5            -1.2565    -0.7538     0.0100 C.3     
   6 C6             1.2806    -0.7192    -0.0140 C.3     
   7 C7             1.7394    -0.9759     1.4228 C.3     
   8 O8             0.8195    -1.8605     2.0658 O.3     
   9 N9             1.6535    -3.3567     7.2686 N.pl3   
  10 N10            0.5194    -4.1750     7.3778 N.2     
  11 N11           -0.1213    -4.1696     6.2624 N.2     
  12 C12            0.5067    -3.3840     5.3650 C.ar    
  13 C13            1.6485    -2.8515     5.9884 C.ar    
  14 C14            0.2324    -3.0433     4.0333 C.ar    
  15 C15            1.0833    -2.1931     3.3577 C.ar    
  16 C16            2.2106    -1.6732     3.9890 C.ar    
  17 C17            2.4916    -1.9975     5.2864 C.ar    
  18 C18            2.6445    -3.0878     8.3135 C.3     
  19 C19            3.7646    -4.1269     8.2336 C.3     
  20 C20            4.9615    -3.9489     9.1699 C.3     
  21 C21            3.9461    -5.0635     9.4297 C.3     
  22 Br22          -1.2958    -3.7445     3.1679 Br      
  23 C23           -1.1349     3.4517     0.0262 C.3     
  24 C24           -0.4003     3.9401    -1.2239 C.3     
  25 C25           -2.5565     4.0172     0.0360 C.3     
  26 C26           -0.3885     3.9266     1.2745 C.3     
  27 H27           -1.5785    -0.9342    -1.0156 H       
  28 H28           -1.1084    -1.7071     0.5173 H       
  29 H29           -2.0192    -0.1778     0.5342 H       
  30 H30            1.1583    -1.6705    -0.5318 H       
  31 H31            2.0272    -0.1171    -0.5318 H       
  32 H32            2.7312    -1.4281     1.4122 H       
  33 H33            1.7762    -0.0320     1.9666 H       
  34 H34            2.8687    -1.0090     3.4485 H       
  35 H35            3.3684    -1.5894     5.7670 H       
  36 H36            3.0624    -2.0913     8.1702 H       
  37 H37            2.1659    -3.1439     9.2912 H       
  38 H38            3.9582    -4.5341     7.2412 H       
  39 H39            5.9424    -4.2394     8.7937 H       
  40 H40            4.9509    -3.0915     9.8429 H       
  41 H41            3.2674    -4.9394    10.2736 H       
  42 H42            4.2590    -6.0873     9.2245 H       
  43 H43           -0.9321     3.6018    -2.1132 H       
  44 H44           -0.3581     5.0293    -1.2182 H       
  45 H45            0.6125     3.5373    -1.2309 H       
  46 H46           -3.0798     3.6692     0.9266 H       
  47 H47           -2.5142     5.1064     0.0417 H       
  48 H48           -3.0883     3.6789    -0.8533 H       
  49 H49            0.6243     3.5237     1.2675 H       
  50 H50           -0.3462     5.0157     1.2802 H       
  51 H51           -0.9118     3.5786     2.1651 H       
@<TRIPOS>BOND
   1    1    2 am
   2    1    3 2
   3    1    4 1
   4    2    5 1
   5    2    6 1
   6    4   23 1
   7    5   27 1
   8    5   28 1
   9    5   29 1
  10    6    7 1
  11    6   30 1
  12    6   31 1
  13    7    8 1
  14    7   32 1
  15    7   33 1
  16    8   15 1
  17    9   10 1
  18    9   13 1
  19    9   18 1
  20   10   11 2
  21   11   12 1
  22   12   13 ar
  23   12   14 ar
  24   13   17 ar
  25   14   15 ar
  26   14   22 1
  27   15   16 ar
  28   16   17 ar
  29   16   34 1
  30   17   35 1
  31   18   19 1
  32   18   36 1
  33   18   37 1
  34   19   20 1
  35   19   21 1
  36   19   38 1
  37   20   21 1
  38   20   39 1
  39   20   40 1
  40   21   41 1
  41   21   42 1
  42   23   24 1
  43   23   26 1
  44   23   25 1
  45   24   43 1
  46   24   44 1
  47   24   45 1
  48   25   46 1
  49   25   47 1
  50   25   48 1
  51   26   49 1
  52   26   50 1
  53   26   51 1

#	End of record

