#	Name: ASD03430595
#	Creating user name:	WinNT
#	Creation time:	15. 06. 2019 20:41

#	Modifying user name:	WinNT
#	Modification time:	15. 06. 2019 20:41

#	Program:	/corina/corina34_cracker 3.40 0067  02.08.2006

@<TRIPOS>MOLECULE
ASD03430595
  58   63    0    0    0
SMALL
NO_CHARGES


@<TRIPOS>ATOM
   1 N1            -0.0129     1.4980     0.4895 N.am    
   2 C2             0.0480     0.2327     0.9378 C.2     
   3 C3             1.4891    -0.0374     1.3149 C.3     
   4 C4             2.1989     1.2609     1.0070 C.ar    
   5 C5             3.5106     1.6621     1.1264 C.ar    
   6 C6             3.8766     2.9442     0.7556 C.ar    
   7 C7             2.9224     3.8177     0.2664 C.ar    
   8 C8             1.6076     3.4182     0.1459 C.ar    
   9 C9             1.2314     2.1287     0.5171 C.ar    
  10 O10           -0.8776    -0.5463     1.0244 O.2     
  11 O11            1.5930    -0.3472     2.7060 O.3     
  12 O12            3.5983    -4.2214    -1.8298 O.3     
  13 C13            3.8375    -5.4747    -1.1804 C.3     
  14 C14            2.6035    -5.8215    -0.3363 C.3     
  15 O15            2.4105    -4.7778     0.6245 O.3     
  16 C16            2.4931    -3.4981     0.1635 C.ar    
  17 C17            3.0880    -3.2209    -1.0608 C.ar    
  18 C18            1.9740    -2.4639     0.9307 C.ar    
  19 C19            2.0524    -1.1581     0.4794 C.ar    
  20 C20            2.6485    -0.8804    -0.7413 C.ar    
  21 C21            3.1656    -1.9111    -1.5108 C.ar    
  22 O22            2.7254     0.4030    -1.1840 O.3     
  23 F23            1.3936    -2.7326     2.1207 F       
  24 C24           -1.2434     2.1395     0.0197 C.3     
  25 C25           -1.0030     2.7564    -1.3340 C.ar    
  26 C26           -1.5197     4.0048    -1.6262 C.ar    
  27 C27           -1.2992     4.5708    -2.8680 C.ar    
  28 C28           -0.5616     3.8885    -3.8174 C.ar    
  29 C29           -0.0441     2.6405    -3.5249 C.ar    
  30 C30           -0.2610     2.0764    -2.2816 C.ar    
  31 C31           -2.3385     1.1095    -0.0850 C.ar    
  32 C32           -3.4774     1.2305     0.6890 C.ar    
  33 C33           -4.4819     0.2857     0.5930 C.ar    
  34 C34           -4.3477    -0.7799    -0.2773 C.ar    
  35 C35           -3.2092    -0.9003    -1.0520 C.ar    
  36 C36           -2.2066     0.0468    -0.9592 C.ar    
  37 H37            4.2528     0.9772     1.5092 H       
  38 H38            4.9046     3.2620     0.8484 H       
  39 H39            3.2082     4.8183    -0.0225 H       
  40 H40            0.8683     4.1062    -0.2370 H       
  41 H41            1.1049    -1.1391     2.9701 H       
  42 H42            4.0014    -6.2508    -1.9280 H       
  43 H43            4.7128    -5.3936    -0.5358 H       
  44 H44            1.7269    -5.8955    -0.9799 H       
  45 H45            2.7641    -6.7693     0.1776 H       
  46 H46            3.6297    -1.6940    -2.4615 H       
  47 H47            3.5288     0.8661    -0.9097 H       
  48 H48           -1.5407     2.9155     0.7251 H       
  49 H49           -2.0960     4.5379    -0.8845 H       
  50 H50           -1.7035     5.5458    -3.0966 H       
  51 H51           -0.3900     4.3303    -4.7878 H       
  52 H52            0.5319     2.1073    -4.2667 H       
  53 H53            0.1465     1.1030    -2.0517 H       
  54 H54           -3.5823     2.0629     1.3690 H       
  55 H55           -5.3714     0.3798     1.1983 H       
  56 H56           -5.1322    -1.5184    -0.3518 H       
  57 H57           -3.1042    -1.7330    -1.7318 H       
  58 H58           -1.3187    -0.0453    -1.5671 H       
@<TRIPOS>BOND
   1    1    2 am
   2    1    9 1
   3    1   24 1
   4    2    3 1
   5    2   10 2
   6    3    4 1
   7    3   11 1
   8    3   19 1
   9    4    5 ar
  10    4    9 ar
  11    5    6 ar
  12    5   37 1
  13    6    7 ar
  14    6   38 1
  15    7    8 ar
  16    7   39 1
  17    8    9 ar
  18    8   40 1
  19   11   41 1
  20   12   13 1
  21   12   17 1
  22   13   14 1
  23   13   42 1
  24   13   43 1
  25   14   15 1
  26   14   44 1
  27   14   45 1
  28   15   16 1
  29   16   17 ar
  30   16   18 ar
  31   17   21 ar
  32   18   19 ar
  33   18   23 1
  34   19   20 ar
  35   20   21 ar
  36   20   22 1
  37   21   46 1
  38   22   47 1
  39   24   25 1
  40   24   31 1
  41   24   48 1
  42   25   26 ar
  43   25   30 ar
  44   26   27 ar
  45   26   49 1
  46   27   28 ar
  47   27   50 1
  48   28   29 ar
  49   28   51 1
  50   29   30 ar
  51   29   52 1
  52   30   53 1
  53   31   32 ar
  54   31   36 ar
  55   32   33 ar
  56   32   54 1
  57   33   34 ar
  58   33   55 1
  59   34   35 ar
  60   34   56 1
  61   35   36 ar
  62   35   57 1
  63   36   58 1

#	End of record

