#	Name: ASD01883524
#	Creating user name:	WinNT
#	Creation time:	15. 06. 2019 19:46

#	Modifying user name:	WinNT
#	Modification time:	15. 06. 2019 19:46

#	Program:	/corina/corina34_cracker 3.40 0067  02.08.2006

@<TRIPOS>MOLECULE
ASD01883524
  61   64    0    0    0
SMALL
NO_CHARGES


@<TRIPOS>ATOM
   1 N1            -0.0073     1.3259     0.0359 N.am    
   2 C2            -0.3908     0.6986    -1.0915 C.2     
   3 C3            -1.6234     0.0049    -1.1286 C.2     
   4 C4            -2.4239    -0.0108     0.0261 C.2     
   5 C5            -1.9685     0.6637     1.1740 C.2     
   6 C6            -0.7799     1.3054     1.1531 C.2     
   7 O7             0.3230     0.7284    -2.0798 O.2     
   8 C8            -2.0471    -0.6675    -2.3198 C.1     
   9 N9            -2.3832    -1.2009    -3.2648 N.1     
  10 C10            1.2716     2.0400     0.0606 C.3     
  11 C11            1.0543     3.4907    -0.3743 C.3     
  12 C12            2.3900     4.2364    -0.3485 C.3     
  13 C13            3.3295     3.6362    -1.3963 C.3     
  14 C14            2.1545     5.7153    -0.6621 C.3     
  15 N15           -3.6309    -0.6732     0.0341 N.pl3   
  16 C16           -3.6990    -2.1400    -0.0834 C.3     
  17 C17           -4.5269    -2.7087     1.0710 C.3     
  18 C18           -5.8879    -2.0058     1.1415 C.3     
  19 C19           -5.6573    -0.5143     1.3597 C.3     
  20 C20           -4.8961     0.0533     0.1657 C.3     
  21 C21           -6.9387     0.2410     1.5537 C.ar    
  22 C22           -7.1003     1.5220     1.0652 C.ar    
  23 C23           -6.0305     2.2469     0.2918 C.3     
  24 C24           -4.6780     1.5440     0.4153 C.3     
  25 C25           -7.9733    -0.3738     2.2416 C.ar    
  26 C26           -9.1704     0.2902     2.4504 C.ar    
  27 C27           -9.3304     1.5809     1.9668 C.ar    
  28 C28           -8.3012     2.1882     1.2810 C.ar    
  29 O29          -10.1817    -0.3184     3.1239 O.3     
  30 C30          -11.3864     0.4298     3.3000 C.3     
  31 H31           -2.5674     0.6653     2.0728 H       
  32 H32           -0.4408     1.8197     2.0401 H       
  33 H33            1.6790     2.0208     1.0714 H       
  34 H34            1.9707     1.5569    -0.6220 H       
  35 H35            0.6469     3.5098    -1.3851 H       
  36 H36            0.3552     3.9738     0.3083 H       
  37 H37            2.8400     4.1417     0.6398 H       
  38 H38            4.2811     4.1675    -1.3779 H       
  39 H39            3.4973     2.5826    -1.1729 H       
  40 H40            2.8796     3.7309    -2.3846 H       
  41 H41            1.4852     6.1429     0.0844 H       
  42 H42            3.1061     6.2466    -0.6437 H       
  43 H43            1.7046     5.8100    -1.6504 H       
  44 H44           -4.1663    -2.4070    -1.0312 H       
  45 H45           -2.6916    -2.5544    -0.0462 H       
  46 H46           -4.6795    -3.7765     0.9144 H       
  47 H47           -3.9924    -2.5558     2.0085 H       
  48 H48           -6.4276    -2.1594     0.2070 H       
  49 H49           -6.4665    -2.4115     1.9714 H       
  50 H50           -5.0488    -0.3814     2.2542 H       
  51 H51           -5.4851    -0.0850    -0.7410 H       
  52 H52           -6.3194     2.2921    -0.7582 H       
  53 H53           -5.9384     3.2621     0.6780 H       
  54 H54           -4.2723     1.6986     1.4150 H       
  55 H55           -3.9873     1.9408    -0.3288 H       
  56 H56           -7.8448    -1.3782     2.6172 H       
  57 H57          -10.2591     2.1082     2.1279 H       
  58 H58           -8.4290     3.1931     0.9066 H       
  59 H59          -11.1699     1.3411     3.8575 H       
  60 H60          -11.7985     0.6897     2.3249 H       
  61 H61          -12.1097    -0.1706     3.8518 H       
@<TRIPOS>BOND
   1    1    2 am
   2    1   10 1
   3    1    6 1
   4    2    3 1
   5    2    7 2
   6    3    4 2
   7    3    8 1
   8    4    5 1
   9    4   15 1
  10    5    6 2
  11    5   31 1
  12    6   32 1
  13    8    9 3
  14   10   11 1
  15   10   33 1
  16   10   34 1
  17   11   12 1
  18   11   35 1
  19   11   36 1
  20   12   13 1
  21   12   14 1
  22   12   37 1
  23   13   38 1
  24   13   39 1
  25   13   40 1
  26   14   41 1
  27   14   42 1
  28   14   43 1
  29   15   16 1
  30   15   20 1
  31   16   17 1
  32   16   44 1
  33   16   45 1
  34   17   18 1
  35   17   46 1
  36   17   47 1
  37   18   19 1
  38   18   48 1
  39   18   49 1
  40   19   20 1
  41   19   21 1
  42   19   50 1
  43   20   24 1
  44   20   51 1
  45   21   22 ar
  46   21   25 ar
  47   22   23 1
  48   22   28 ar
  49   23   24 1
  50   23   52 1
  51   23   53 1
  52   24   54 1
  53   24   55 1
  54   25   26 ar
  55   25   56 1
  56   26   27 ar
  57   26   29 1
  58   27   28 ar
  59   27   57 1
  60   28   58 1
  61   29   30 1
  62   30   59 1
  63   30   60 1
  64   30   61 1

#	End of record

