#	Name: ASD01350056
#	Creating user name:	WinNT
#	Creation time:	15. 06. 2019 19:16

#	Modifying user name:	WinNT
#	Modification time:	15. 06. 2019 19:16

#	Program:	/corina/corina34_cracker 3.40 0067  02.08.2006

@<TRIPOS>MOLECULE
ASD01350056
  73   74    0    0    0
SMALL
NO_CHARGES


@<TRIPOS>ATOM
   1 C1             0.0661     1.5167    -0.0570 C.3     
   2 C2             0.0947    -0.0130    -0.0671 C.3     
   3 C3             0.8087    -0.5181     1.1883 C.3     
   4 C4             0.8373    -2.0478     1.1781 C.3     
   5 C5             1.5512    -2.5529     2.4335 C.3     
   6 C6             1.5798    -4.0826     2.4234 C.3     
   7 C7             2.2938    -4.5877     3.6788 C.3     
   8 C8             2.3224    -6.1174     3.6686 C.3     
   9 C9             3.0363    -6.6225     4.9241 C.3     
  10 C10            3.0645    -8.1292     4.9140 C.2     
  11 O11            2.5629    -8.7390     3.9933 O.2     
  12 N12            3.6470    -8.7991     5.9281 N.am    
  13 C13            3.5761   -10.1976     5.9762 C.ar    
  14 C14            2.3508   -10.8238     6.1672 C.ar    
  15 C15            2.2743   -12.2025     6.2160 C.ar    
  16 C16            3.4200   -12.9681     6.0740 C.ar    
  17 C17            4.6561   -12.3439     5.8811 C.ar    
  18 C18            4.7279   -10.9547     5.8274 C.ar    
  19 C19            5.8861   -13.1592     5.7290 C.ar    
  20 C20            6.1751   -14.1655     6.6503 C.ar    
  21 C21            7.3199   -14.9268     6.5117 C.ar    
  22 C22            8.1853   -14.6976     5.4616 C.ar    
  23 C23            7.9076   -13.6918     4.5313 C.ar    
  24 C24            6.7497   -12.9250     4.6641 C.ar    
  25 C25            8.8333   -13.4459     3.4089 C.2     
  26 O26            9.8452   -14.1225     3.2914 O.co2   
  27 O27            8.5886   -12.5655     2.5961 O.co2   
  28 O28            3.3427   -14.3242     6.1227 O.3     
  29 C29            2.0474   -14.8934     6.3231 C.3     
  30 C30            4.3545    -8.0649     6.9802 C.3     
  31 C31            3.3782    -7.7212     8.1070 C.3     
  32 N32            4.0875    -6.9851     9.1619 N.3     
  33 C33            3.1446    -6.4332    10.1439 C.3     
  34 C34            5.0898    -7.8372     9.8157 C.3     
  35 H35            1.0867     1.8991    -0.0407 H       
  36 H36           -0.4425     1.8765    -0.9513 H       
  37 H37           -0.4662     1.8642     0.8284 H       
  38 H38           -0.9259    -0.3954    -0.0834 H       
  39 H39            0.6271    -0.3606    -0.9525 H       
  40 H40            1.8293    -0.1357     1.2045 H       
  41 H41            0.2763    -0.1705     2.0737 H       
  42 H42           -0.1833    -2.4302     1.1619 H       
  43 H43            1.3696    -2.3954     0.2928 H       
  44 H44            2.5718    -2.1705     2.4498 H       
  45 H45            1.0188    -2.2053     3.3189 H       
  46 H46            0.5592    -4.4650     2.4071 H       
  47 H47            2.1122    -4.4302     1.5380 H       
  48 H48            3.3143    -4.2053     3.6951 H       
  49 H49            1.7614    -4.2401     4.5642 H       
  50 H50            1.3018    -6.4998     3.6524 H       
  51 H51            2.8547    -6.4650     2.7833 H       
  52 H52            4.0569    -6.2401     4.9403 H       
  53 H53            2.5039    -6.2749     5.8094 H       
  54 H54            1.4550   -10.2309     6.2783 H       
  55 H55            1.3193   -12.6842     6.3654 H       
  56 H56            5.6802   -10.4674     5.6781 H       
  57 H57            5.5024   -14.3500     7.4748 H       
  58 H58            7.5385   -15.7044     7.2286 H       
  59 H59            9.0785   -15.2959     5.3585 H       
  60 H60            6.5298   -12.1465     3.9486 H       
  61 H61            2.1270   -15.9803     6.3419 H       
  62 H62            1.6390   -14.5425     7.2708 H       
  63 H63            1.3880   -14.5914     5.5093 H       
  64 H64            5.1615    -8.6825     7.3744 H       
  65 H65            4.7693    -7.1460     6.5660 H       
  66 H66            2.5712    -7.1036     7.7127 H       
  67 H67            2.9633    -8.6401     8.5212 H       
  68 H68            2.5812    -7.2455    10.6029 H       
  69 H69            3.6962    -5.8932    10.9136 H       
  70 H70            2.4569    -5.7512     9.6438 H       
  71 H71            5.8162    -8.1759     9.0769 H       
  72 H72            5.6001    -7.2675    10.5923 H       
  73 H73            4.5968    -8.7004    10.2628 H       
@<TRIPOS>BOND
   1    1    2 1
   2    1   35 1
   3    1   36 1
   4    1   37 1
   5    2    3 1
   6    2   38 1
   7    2   39 1
   8    3    4 1
   9    3   40 1
  10    3   41 1
  11    4    5 1
  12    4   42 1
  13    4   43 1
  14    5    6 1
  15    5   44 1
  16    5   45 1
  17    6    7 1
  18    6   46 1
  19    6   47 1
  20    7    8 1
  21    7   48 1
  22    7   49 1
  23    8    9 1
  24    8   50 1
  25    8   51 1
  26    9   10 1
  27    9   52 1
  28    9   53 1
  29   10   11 2
  30   10   12 am
  31   12   13 1
  32   12   30 1
  33   13   14 ar
  34   13   18 ar
  35   14   15 ar
  36   14   54 1
  37   15   16 ar
  38   15   55 1
  39   16   17 ar
  40   16   28 1
  41   17   18 ar
  42   17   19 1
  43   18   56 1
  44   19   20 ar
  45   19   24 ar
  46   20   21 ar
  47   20   57 1
  48   21   22 ar
  49   21   58 1
  50   22   23 ar
  51   22   59 1
  52   23   24 ar
  53   23   25 1
  54   24   60 1
  55   25   26 ar
  56   25   27 ar
  57   28   29 1
  58   29   61 1
  59   29   62 1
  60   29   63 1
  61   30   31 1
  62   30   64 1
  63   30   65 1
  64   31   32 1
  65   31   66 1
  66   31   67 1
  67   32   33 1
  68   32   34 1
  69   33   68 1
  70   33   69 1
  71   33   70 1
  72   34   71 1
  73   34   72 1
  74   34   73 1

#	End of record

