#	Name: ASD03430894
#	Creating user name:	WinNT
#	Creation time:	15. 06. 2019 20:41

#	Modifying user name:	WinNT
#	Modification time:	15. 06. 2019 20:41

#	Program:	/corina/corina34_cracker 3.40 0067  02.08.2006

@<TRIPOS>MOLECULE
ASD03430894
  30   33    0    0    0
SMALL
NO_CHARGES


@<TRIPOS>ATOM
   1 O1            -0.0175     1.4359     0.0099 O.3     
   2 C2             0.0021    -0.0041     0.0020 C.3     
   3 C3             1.3440    -0.3159    -0.6745 C.3     
   4 C4             2.1587     0.9226    -0.4119 C.ar    
   5 C5             1.2618     1.9061     0.0002 C.ar    
   6 C6             1.7464     3.1662     0.3294 C.ar    
   7 C7             3.1094     3.4395     0.2363 C.ar    
   8 C8             3.9927     2.4445    -0.1884 C.ar    
   9 C9             3.5080     1.1932    -0.5097 C.ar    
  10 N10            2.1537    -2.4038    -1.1322 N.am    
  11 C11            1.9833    -1.5491    -0.1040 C.2     
  12 C12            1.1825    -0.5930    -2.1395 C.ar    
  13 C13            0.6701     0.1292    -3.1935 C.ar    
  14 C14            0.6595    -0.4140    -4.4663 C.ar    
  15 C15            1.1652    -1.6835    -4.6767 C.ar    
  16 C16            1.6798    -2.4116    -3.6237 C.ar    
  17 C17            1.6944    -1.8729    -2.3399 C.ar    
  18 O18            2.2873    -1.7387     1.0548 O.2     
  19 C19            3.6042     4.7398     0.5752 C.1     
  20 N20            3.9967     5.7714     0.8441 N.1     
  21 H21           -0.0193    -0.3969     1.0185 H       
  22 H22           -0.8277    -0.3990    -0.5841 H       
  23 H23            1.0642     3.9363     0.6581 H       
  24 H24            5.0494     2.6537    -0.2658 H       
  25 H25            4.1884     0.4216    -0.8385 H       
  26 H26            2.5496    -3.2849    -1.0439 H       
  27 H27            0.2755     1.1207    -3.0269 H       
  28 H28            0.2569     0.1522    -5.2932 H       
  29 H29            1.1571    -2.1075    -5.6700 H       
  30 H30            2.0723    -3.4029    -3.7959 H       
@<TRIPOS>BOND
   1    1    2 1
   2    1    5 1
   3    2    3 1
   4    2   21 1
   5    2   22 1
   6    3    4 1
   7    3   11 1
   8    3   12 1
   9    4    5 ar
  10    4    9 ar
  11    5    6 ar
  12    6    7 ar
  13    6   23 1
  14    7    8 ar
  15    7   19 1
  16    8    9 ar
  17    8   24 1
  18    9   25 1
  19   10   11 am
  20   10   17 1
  21   10   26 1
  22   11   18 2
  23   12   13 ar
  24   12   17 ar
  25   13   14 ar
  26   13   27 1
  27   14   15 ar
  28   14   28 1
  29   15   16 ar
  30   15   29 1
  31   16   17 ar
  32   16   30 1
  33   19   20 3

#	End of record

