#	Name: ASD01948287
#	Creating user name:	WinNT
#	Creation time:	15. 06. 2019 20:14

#	Modifying user name:	WinNT
#	Modification time:	15. 06. 2019 20:14

#	Program:	/corina/corina34_cracker 3.40 0067  02.08.2006

@<TRIPOS>MOLECULE
ASD01948287
  54   56    0    0    0
SMALL
NO_CHARGES


@<TRIPOS>ATOM
   1 C1             1.4503     5.5025    -0.8257 C.ar    
   2 C2             1.8435     5.5700    -2.1507 C.ar    
   3 C3             2.9164     4.8196    -2.5960 C.ar    
   4 C4             3.6000     3.9992    -1.7191 C.ar    
   5 C5             3.2097     3.9284    -0.3889 C.ar    
   6 C6             2.1301     4.6842     0.0572 C.ar    
   7 N7             4.6219     0.9838    -0.2988 N.am    
   8 C8             4.9045     2.2746     0.0378 C.2     
   9 N9             3.8998     3.0983     0.5011 N.pl3   
  10 C10            5.5864     0.1623    -0.7529 C.2     
  11 C11            6.9000     0.6199    -0.8880 C.2     
  12 C12            7.2064     1.9236    -0.5519 C.2     
  13 C13            6.1934     2.7622    -0.0823 C.2     
  14 N14            6.4818     4.0949     0.2659 N.am    
  15 I15            0.8107     6.8114    -3.4854 I       
  16 O16            5.3119    -0.9911    -1.0486 O.2     
  17 F17            1.7469     4.6189     1.3511 F       
  18 C18            3.2523     0.4831    -0.1587 C.3     
  19 S19            7.9900     4.7170    -0.0178 S.o2    
  20 O20            7.9369     6.0277     0.5284 O.2     
  21 O21            8.8770     3.7394     0.5083 O.2     
  22 C22            8.1185     4.7856    -1.8260 C.3     
  23 C23            7.9760    -0.3046    -1.3965 C.3     
  24 C24            9.3961     5.4798    -2.3268 C.3     
  25 C25            9.4665     4.3932    -3.4128 C.3     
  26 C26            8.6684     3.4941    -2.4540 C.3     
  27 C27            8.1008    -1.5068    -0.4583 C.3     
  28 C28            9.2747    -2.3813    -0.9033 C.3     
  29 C29            7.6101    -0.7894    -2.8008 C.3     
  30 H30            0.6146     6.0929    -0.4800 H       
  31 H31            3.2202     4.8746    -3.6309 H       
  32 H32            4.4373     3.4133    -2.0685 H       
  33 H33            3.6717     3.1021     1.4439 H       
  34 H34            8.2174     2.2903    -0.6510 H       
  35 H35            5.7971     4.6490     0.6721 H       
  36 H36            2.6808     0.7331    -1.0525 H       
  37 H37            3.2723    -0.5993    -0.0313 H       
  38 H38            2.7846     0.9428     0.7120 H       
  39 H39            7.2082     5.1507    -2.3014 H       
  40 H40            8.9261     0.2285    -1.4322 H       
  41 H41            9.2230     6.4810    -2.7215 H       
  42 H42           10.2215     5.4408    -1.6160 H       
  43 H43            8.9248     4.6501    -4.3231 H       
  44 H44           10.4774     4.0352    -3.6074 H       
  45 H45            9.2948     2.9122    -1.7779 H       
  46 H46            7.9077     2.8922    -2.9512 H       
  47 H47            8.2736    -1.1570     0.5594 H       
  48 H48            7.1805    -2.0900    -0.4907 H       
  49 H49           10.1950    -1.7981    -0.8710 H       
  50 H50            9.3636    -3.2377    -0.2350 H       
  51 H51            9.1019    -2.7311    -1.9211 H       
  52 H52            7.5212     0.0670    -3.4691 H       
  53 H53            8.3884    -1.4581    -3.1686 H       
  54 H54            6.6601    -1.3225    -2.7650 H       
@<TRIPOS>BOND
   1    1    2 ar
   2    1    6 ar
   3    1   30 1
   4    2    3 ar
   5    2   15 1
   6    3    4 ar
   7    3   31 1
   8    4    5 ar
   9    4   32 1
  10    5    6 ar
  11    5    9 1
  12    6   17 1
  13    7    8 1
  14    7   10 am
  15    7   18 1
  16    8    9 1
  17    8   13 2
  18    9   33 1
  19   10   11 1
  20   10   16 2
  21   11   12 2
  22   11   23 1
  23   12   13 1
  24   12   34 1
  25   13   14 1
  26   14   19 am
  27   14   35 1
  28   18   36 1
  29   18   37 1
  30   18   38 1
  31   19   20 2
  32   19   21 2
  33   19   22 1
  34   22   24 1
  35   22   26 1
  36   22   39 1
  37   23   27 1
  38   23   29 1
  39   23   40 1
  40   24   25 1
  41   24   41 1
  42   24   42 1
  43   25   26 1
  44   25   43 1
  45   25   44 1
  46   26   45 1
  47   26   46 1
  48   27   28 1
  49   27   47 1
  50   27   48 1
  51   28   49 1
  52   28   50 1
  53   28   51 1
  54   29   52 1
  55   29   53 1
  56   29   54 1

#	End of record

