#	Name: ASD00310037
#	Creating user name:	WinNT
#	Creation time:	15. 06. 2019 18:33

#	Modifying user name:	WinNT
#	Modification time:	15. 06. 2019 18:33

#	Program:	/corina/corina34_cracker 3.40 0067  02.08.2006

@<TRIPOS>MOLECULE
ASD00310037
  26   27    0    0    0
SMALL
NO_CHARGES


@<TRIPOS>ATOM
   1 C1            -0.0187     1.5267     0.0104 C.3     
   2 C2             0.0021    -0.0041     0.0020 C.3     
   3 C3             0.7956    -0.5028     1.2136 C.3     
   4 C4             2.2039     0.0979     1.1702 C.3     
   5 C5             2.0981     1.6247     1.1335 C.3     
   6 O6             1.3225     2.0200     0.0003 O.3     
   7 C7            -0.7471     2.0261    -1.2106 C.ar    
   8 C8            -2.0642     2.4342    -1.1108 C.ar    
   9 C9            -2.7326     2.8928    -2.2303 C.ar    
  10 C10           -2.0834     2.9434    -3.4508 C.ar    
  11 C11           -0.7656     2.5349    -3.5502 C.ar    
  12 C12           -0.0964     2.0815    -2.4290 C.ar    
  13 Br13          -2.9975     3.5701    -4.9829 Br      
  14 Br14          -0.1078     0.0576     2.8674 Br      
  15 H15           -0.5286     1.8784     0.9073 H       
  16 H16           -1.0188    -0.3825     0.0543 H       
  17 H17            0.4759    -0.3569    -0.9140 H       
  18 H18            0.8619    -1.5904     1.1834 H       
  19 H19            2.7578    -0.2076     2.0579 H       
  20 H20            2.7222    -0.2529     0.2777 H       
  21 H21            1.6159     1.9777     2.0451 H       
  22 H22            3.0962     2.0566     1.0594 H       
  23 H23           -2.5710     2.3944    -0.1579 H       
  24 H24           -3.7616     3.2113    -2.1523 H       
  25 H25           -0.2585     2.5739    -4.5029 H       
  26 H26            0.9338     1.7664    -2.5057 H       
@<TRIPOS>BOND
   1    1    2 1
   2    1    6 1
   3    1    7 1
   4    1   15 1
   5    2    3 1
   6    2   16 1
   7    2   17 1
   8    3    4 1
   9    3   14 1
  10    3   18 1
  11    4    5 1
  12    4   19 1
  13    4   20 1
  14    5    6 1
  15    5   21 1
  16    5   22 1
  17    7    8 ar
  18    7   12 ar
  19    8    9 ar
  20    8   23 1
  21    9   10 ar
  22    9   24 1
  23   10   11 ar
  24   10   13 1
  25   11   12 ar
  26   11   25 1
  27   12   26 1

#	End of record

