#	Name: ASD00843296
#	Creating user name:	WinNT
#	Creation time:	15. 06. 2019 18:46

#	Modifying user name:	WinNT
#	Modification time:	15. 06. 2019 18:46

#	Program:	/corina/corina34_cracker 3.40 0067  02.08.2006

@<TRIPOS>MOLECULE
ASD00843296
  95  100    0    0    0
SMALL
NO_CHARGES


@<TRIPOS>ATOM
   1 N1             1.0058     1.1651    -0.3196 N.ar    
   2 C2             1.1712    -0.1206    -0.5817 C.ar    
   3 C3             1.0332    -1.0711     0.4220 C.ar    
   4 C4             0.7196    -0.6556     1.7041 C.ar    
   5 C5             0.5543     0.7028     1.9381 C.ar    
   6 C6             0.7065     1.5916     0.8928 C.ar    
   7 C7             1.2220    -2.5351     0.1184 C.3     
   8 C8             0.8762    -3.3765     1.3285 C.2     
   9 C9             0.3679    -2.9466    -1.0824 C.3     
  10 C10           -1.0694    -2.5715    -0.8287 C.2     
  11 N11           -2.0270    -2.9430    -1.7014 N.am    
  12 O12           -1.3645    -1.9354     0.1608 O.2     
  13 C13           -3.4137    -2.4891    -1.5292 C.3     
  14 C14           -4.3363    -3.7120    -1.5285 C.3     
  15 C15           -4.0955    -4.5284    -2.8004 C.3     
  16 C16           -2.6456    -5.0172    -2.8280 C.3     
  17 C17           -1.7027    -3.8045    -2.8465 C.3     
  18 C18           -5.0397    -5.7321    -2.8198 C.3     
  19 C19           -6.4910    -5.2446    -2.7939 C.3     
  20 C20           -7.4305    -6.4499    -2.8749 C.3     
  21 N21           -7.1675    -7.1948    -4.1129 N.3     
  22 C22           -5.7939    -7.7133    -4.1390 C.3     
  23 C23           -4.8055    -6.5457    -4.0957 C.3     
  24 C24           -8.1428    -8.2785    -4.2925 C.3     
  25 O25           -0.2031    -3.4381     1.8784 O.2     
  26 N26            1.9897    -4.0419     1.6791 N.am    
  27 C27            2.6805    -2.8392    -0.1363 C.ar    
  28 C28            3.0663    -3.7492     0.8402 C.ar    
  29 C29            3.5765    -2.3981    -1.0838 C.ar    
  30 C30            4.8811    -2.8624    -1.0704 C.ar    
  31 C31            5.2786    -3.7703    -0.1017 C.ar    
  32 C32            4.3796    -4.2134     0.8495 C.ar    
  33 Cl33           6.0146    -2.3096    -2.2634 Cl      
  34 F34            6.5510    -4.2242    -0.0873 F       
  35 C35            1.6608    -6.6901     2.3520 C.ar    
  36 C36            0.3837    -6.9400     1.8705 C.ar    
  37 C37            2.6099    -7.6946     2.3504 C.ar    
  38 C38            2.2901    -8.9496     1.8692 C.ar    
  39 C39            1.0140    -9.2045     1.3865 C.ar    
  40 C40            0.0601    -8.1988     1.3875 C.ar    
  41 O41            0.6999   -10.4392     0.9137 O.3     
  42 O42           -0.5493    -5.9519     1.8728 O.3     
  43 C43           -1.8430    -6.2801     1.3623 C.3     
  44 C44            1.7319   -11.4272     0.9434 C.3     
  45 C45           -7.9971    -8.8682    -5.6967 C.3     
  46 S46            2.0749    -5.0888     2.9593 S.o2    
  47 O47            3.4425    -5.1456     3.3408 O.2     
  48 O48            1.0338    -4.7166     3.8520 O.2     
  49 O49            1.4780    -0.5151    -1.8431 O.3     
  50 C50            1.5648     0.5059    -2.8391 C.3     
  51 C51            2.0081    -0.1128    -4.1664 C.3     
  52 F52            3.2200    -0.7877    -3.9846 F       
  53 F53            1.0341    -1.0142    -4.6091 F       
  54 H54            0.6058    -1.3718     2.5044 H       
  55 H55            0.3089     1.0604     2.9272 H       
  56 H56            0.5793     2.6494     1.0696 H       
  57 H57            0.7251    -2.4335    -1.9753 H       
  58 H58            0.4419    -4.0242    -1.2286 H       
  59 H59           -3.5095    -1.9585    -0.5818 H       
  60 H60           -3.6860    -1.8264    -2.3507 H       
  61 H61           -4.1231    -4.3281    -0.6549 H       
  62 H62           -5.3753    -3.3839    -1.4980 H       
  63 H63           -4.2851    -3.9044    -3.6737 H       
  64 H64           -2.4483    -5.6210    -1.9422 H       
  65 H65           -2.4812    -5.6181    -3.7224 H       
  66 H66           -1.8369    -3.2516    -3.7762 H       
  67 H67           -0.6698    -4.1435    -2.7664 H       
  68 H68           -4.8501    -6.3579    -1.9477 H       
  69 H69           -6.6758    -4.7008    -1.8675 H       
  70 H70           -6.6691    -4.5866    -3.6445 H       
  71 H71           -7.2615    -7.1005    -2.0168 H       
  72 H72           -8.4646    -6.1053    -2.8712 H       
  73 H73           -5.6325    -8.3579    -3.2749 H       
  74 H74           -5.6393    -8.2863    -5.0532 H       
  75 H75           -4.9571    -5.9081    -4.9667 H       
  76 H76           -3.7861    -6.9315    -4.0993 H       
  77 H77           -7.9619    -9.0567    -3.5510 H       
  78 H78           -9.1512    -7.8843    -4.1668 H       
  79 H79            3.2622    -1.6908    -1.8371 H       
  80 H80            4.6959    -4.9207     1.6019 H       
  81 H81            3.6034    -7.4982     2.7256 H       
  82 H82            3.0337    -9.7327     1.8683 H       
  83 H83           -0.9335    -8.3953     1.0126 H       
  84 H84           -2.4898    -5.4047     1.4215 H       
  85 H85           -1.7540    -6.5965     0.3230 H       
  86 H86           -2.2721    -7.0895     1.9530 H       
  87 H87            1.3495   -12.3643     0.5388 H       
  88 H88            2.5758   -11.0893     0.3420 H       
  89 H89            2.0575   -11.5816     1.9721 H       
  90 H90           -6.9886    -9.2624    -5.8224 H       
  91 H91           -8.7207    -9.6724    -5.8300 H       
  92 H92           -8.1780    -8.0900    -6.4382 H       
  93 H93            0.5888     0.9748    -2.9648 H       
  94 H94            2.2911     1.2566    -2.5276 H       
  95 H95            2.1385     0.6747    -4.9087 H       
@<TRIPOS>BOND
   1    1    2 ar
   2    1    6 ar
   3    2    3 ar
   4    2   49 1
   5    3    4 ar
   6    3    7 1
   7    4    5 ar
   8    4   54 1
   9    5    6 ar
  10    5   55 1
  11    6   56 1
  12    7    8 1
  13    7    9 1
  14    7   27 1
  15    8   25 2
  16    8   26 am
  17    9   10 1
  18    9   57 1
  19    9   58 1
  20   10   11 am
  21   10   12 2
  22   11   13 1
  23   11   17 1
  24   13   14 1
  25   13   59 1
  26   13   60 1
  27   14   15 1
  28   14   61 1
  29   14   62 1
  30   15   16 1
  31   15   18 1
  32   15   63 1
  33   16   17 1
  34   16   64 1
  35   16   65 1
  36   17   66 1
  37   17   67 1
  38   18   19 1
  39   18   23 1
  40   18   68 1
  41   19   20 1
  42   19   69 1
  43   19   70 1
  44   20   21 1
  45   20   71 1
  46   20   72 1
  47   21   22 1
  48   21   24 1
  49   22   23 1
  50   22   73 1
  51   22   74 1
  52   23   75 1
  53   23   76 1
  54   24   45 1
  55   24   77 1
  56   24   78 1
  57   26   46 am
  58   26   28 1
  59   27   28 ar
  60   27   29 ar
  61   28   32 ar
  62   29   30 ar
  63   29   79 1
  64   30   31 ar
  65   30   33 1
  66   31   32 ar
  67   31   34 1
  68   32   80 1
  69   35   36 ar
  70   35   37 ar
  71   35   46 1
  72   36   42 1
  73   36   40 ar
  74   37   38 ar
  75   37   81 1
  76   38   39 ar
  77   38   82 1
  78   39   40 ar
  79   39   41 1
  80   40   83 1
  81   41   44 1
  82   42   43 1
  83   43   84 1
  84   43   85 1
  85   43   86 1
  86   44   87 1
  87   44   88 1
  88   44   89 1
  89   45   90 1
  90   45   91 1
  91   45   92 1
  92   46   47 2
  93   46   48 2
  94   49   50 1
  95   50   51 1
  96   50   93 1
  97   50   94 1
  98   51   52 1
  99   51   53 1
 100   51   95 1

#	End of record

