#	Name: ASD06340077
#	Creating user name:	WinNT
#	Creation time:	15. 06. 2019 21:06

#	Modifying user name:	WinNT
#	Modification time:	15. 06. 2019 21:06

#	Program:	/corina/corina34_cracker 3.40 0067  02.08.2006

@<TRIPOS>MOLECULE
ASD06340077
  36   38    0    0    0
SMALL
NO_CHARGES


@<TRIPOS>ATOM
   1 S1            -0.0210     1.6939     0.0114 S.3     
   2 N2             0.0021    -0.0041     0.0020 N.am    
   3 C3             1.2962    -0.3594    -0.0122 C.2     
   4 N4             2.1856     0.6226    -0.0155 N.am    
   5 C5             1.6912     1.8721    -0.0040 C.2     
   6 O6             1.6365    -1.5276    -0.0214 O.2     
   7 O7             2.3224     2.9128    -0.0052 O.2     
   8 C8             3.6269     0.3610    -0.0302 C.3     
   9 C9             4.1080     0.2785    -1.4559 C.ar    
  10 C10            4.5423     1.4196    -2.1048 C.ar    
  11 C11            4.9838     1.3467    -3.4118 C.ar    
  12 C12            4.9911     0.1272    -4.0733 C.ar    
  13 C13            4.5548    -1.0163    -3.4199 C.ar    
  14 C14            4.1196    -0.9390    -2.1111 C.ar    
  15 O15            5.4245     0.0529    -5.3591 O.3     
  16 C16            5.4042    -1.2353    -5.9772 C.3     
  17 C17           -1.1039    -0.8593     0.0084 C.ar    
  18 C18           -2.3259    -0.4204    -0.4858 C.ar    
  19 C19           -3.4170    -1.2681    -0.4786 C.ar    
  20 C20           -3.2928    -2.5541     0.0212 C.ar    
  21 C21           -2.0767    -2.9929     0.5138 C.ar    
  22 C22           -0.9815    -2.1513     0.5036 C.ar    
  23 Cl23          -4.6656    -3.6167     0.0301 Cl      
  24 Cl24          -4.9446    -0.7211    -1.0958 Cl      
  25 H25            4.1482     1.1691     0.4830 H       
  26 H26            3.8302    -0.5822     0.4770 H       
  27 H27            4.5361     2.3687    -1.5896 H       
  28 H28            5.3226     2.2383    -3.9184 H       
  29 H29            4.5595    -1.9668    -3.9327 H       
  30 H30            3.7843    -1.8297    -1.6005 H       
  31 H31            6.0398    -1.9186    -5.4140 H       
  32 H32            4.3829    -1.6162    -5.9899 H       
  33 H33            5.7743    -1.1539    -6.9992 H       
  34 H34           -2.4229     0.5825    -0.8749 H       
  35 H35           -1.9826    -3.9960     0.9029 H       
  36 H36           -0.0315    -2.4962     0.8845 H       
@<TRIPOS>BOND
   1    1    2 1
   2    1    5 1
   3    2    3 am
   4    2   17 1
   5    3    4 am
   6    3    6 2
   7    4    5 am
   8    4    8 1
   9    5    7 2
  10    8    9 1
  11    8   25 1
  12    8   26 1
  13    9   10 ar
  14    9   14 ar
  15   10   11 ar
  16   10   27 1
  17   11   12 ar
  18   11   28 1
  19   12   13 ar
  20   12   15 1
  21   13   14 ar
  22   13   29 1
  23   14   30 1
  24   15   16 1
  25   16   31 1
  26   16   32 1
  27   16   33 1
  28   17   18 ar
  29   17   22 ar
  30   18   19 ar
  31   18   34 1
  32   19   20 ar
  33   19   24 1
  34   20   21 ar
  35   20   23 1
  36   21   22 ar
  37   21   35 1
  38   22   36 1

#	End of record

