#	Name: ASD01860005
#	Creating user name:	WinNT
#	Creation time:	15. 06. 2019 19:38

#	Modifying user name:	WinNT
#	Modification time:	15. 06. 2019 19:38

#	Program:	/corina/corina34_cracker 3.40 0067  02.08.2006

@<TRIPOS>MOLECULE
ASD01860005
  15   14    0    0    0
SMALL
NO_CHARGES


@<TRIPOS>ATOM
   1 C1            -0.0184     1.5028     0.0103 C.2     
   2 C2             0.0021    -0.0041     0.0020 C.3     
   3 O3             1.3494    -0.4614    -0.1307 O.3     
   4 C4            -0.5881    -0.5293     1.3123 C.3     
   5 C5            -0.6812    -2.0323     1.2544 C.2     
   6 O6             1.0197     2.1211     0.0037 O.2     
   7 O7            -1.1898     2.1580     0.0194 O.3     
   8 O8            -0.3132    -2.6228     0.2665 O.2     
   9 O9            -1.1728    -2.7151     2.3003 O.3     
  10 H10           -0.5904    -0.3709    -0.8362 H       
  11 H11            1.9350    -0.1721     0.5823 H       
  12 H12            0.0541    -0.2368     2.1430 H       
  13 H13           -1.5833    -0.1090     1.4568 H       
  14 H14           -1.1523     3.1243     0.0245 H       
  15 H15           -1.2129    -3.6776     2.2165 H       
@<TRIPOS>BOND
   1    1    2 1
   2    1    6 2
   3    1    7 1
   4    2    3 1
   5    2    4 1
   6    2   10 1
   7    3   11 1
   8    4    5 1
   9    4   12 1
  10    4   13 1
  11    5    8 2
  12    5    9 1
  13    7   14 1
  14    9   15 1

#	End of record

