#	Name: ASD01812044
#	Creating user name:	WinNT
#	Creation time:	15. 06. 2019 19:27

#	Modifying user name:	WinNT
#	Modification time:	15. 06. 2019 19:27

#	Program:	/corina/corina34_cracker 3.40 0067  02.08.2006

@<TRIPOS>MOLECULE
ASD01812044
  48   51    0    0    0
SMALL
NO_CHARGES


@<TRIPOS>ATOM
   1 C1            -0.0107     1.3926    -0.0229 C.ar    
   2 C2             0.0054     0.0044    -0.0356 C.ar    
   3 C3             1.1580     2.1001    -0.0153 C.ar    
   4 C4             1.1983    -0.6844    -0.0407 C.ar    
   5 C5             2.3787     1.4222    -0.0202 C.ar    
   6 C6             2.4005     0.0158    -0.0330 C.ar    
   7 C7             3.7802     1.8487    -0.0156 C.2     
   8 N8             3.7222    -0.3700    -0.0359 N.pl3   
   9 C9             4.5293     0.7348    -0.0254 C.2     
  10 S10            4.3705     3.5088    -0.0002 S.o2    
  11 C11            4.1940    -1.7569    -0.0476 C.3     
  12 C12            3.8235     4.1985    -1.5863 C.3     
  13 O13            3.6721     4.1191     1.0764 O.2     
  14 O14            5.7852     3.3774     0.0250 O.2     
  15 C15            4.2532    -2.2793     1.3647 C.ar    
  16 C16            4.2740     5.6326    -1.6925 C.2     
  17 C17            3.1902    -2.9950     1.8820 C.ar    
  18 C18            5.3749    -2.0472     2.1424 C.ar    
  19 O19            4.9022     6.1395    -0.7874 O.2     
  20 N20            3.9788     6.3519    -2.7934 N.am    
  21 C21            3.2437    -3.4752     3.1775 C.ar    
  22 C22            5.4280    -2.5285     3.4405 C.ar    
  23 C23            4.3958     7.6795    -2.8917 C.2     
  24 C24            4.3604    -3.2401     3.9574 C.ar    
  25 Cl25           6.8336    -2.2392     4.4173 Cl      
  26 C26            5.1341     8.4150    -1.9268 C.2     
  27 N27            4.1904     8.4945    -3.8930 N.2     
  28 C28            5.2828     9.6353    -2.4907 C.2     
  29 O29            4.6786     9.5812    -3.6865 O.3     
  30 C30            5.9957    10.8218    -1.8948 C.3     
  31 H31            3.4763     5.9465    -3.5173 H       
  32 F32            6.4169    -1.3524     1.6357 F       
  33 H33           -0.9546     1.9174    -0.0236 H       
  34 H34           -0.9268    -0.5409    -0.0412 H       
  35 H35            1.1378     3.1799    -0.0058 H       
  36 H36            1.2003    -1.7643    -0.0502 H       
  37 H37            5.6091     0.7138    -0.0251 H       
  38 H38            3.5081    -2.3692    -0.6330 H       
  39 H39            5.1883    -1.7987    -0.4924 H       
  40 H40            4.2564     3.6202    -2.4026 H       
  41 H41            2.7360     4.1539    -1.6461 H       
  42 H42            2.3168    -3.1792     1.2739 H       
  43 H43            2.4121    -4.0341     3.5805 H       
  44 H44            4.4010    -3.6156     4.9692 H       
  45 H45            5.4933     8.0780    -0.9657 H       
  46 H46            7.0455    10.7994    -2.1871 H       
  47 H47            5.5369    11.7414    -2.2581 H       
  48 H48            5.9203    10.7829    -0.8081 H       
@<TRIPOS>BOND
   1    1    2 ar
   2    1    3 ar
   3    1   33 1
   4    2    4 ar
   5    2   34 1
   6    3    5 ar
   7    3   35 1
   8    4    6 ar
   9    4   36 1
  10    5    7 1
  11    5    6 ar
  12    6    8 1
  13    7    9 2
  14    7   10 1
  15    8   11 1
  16    8    9 1
  17    9   37 1
  18   10   12 1
  19   10   13 2
  20   10   14 2
  21   11   15 1
  22   11   38 1
  23   11   39 1
  24   12   16 1
  25   12   40 1
  26   12   41 1
  27   15   17 ar
  28   15   18 ar
  29   16   19 2
  30   16   20 am
  31   17   21 ar
  32   17   42 1
  33   18   22 ar
  34   18   32 1
  35   20   31 1
  36   20   23 1
  37   21   24 ar
  38   21   43 1
  39   22   24 ar
  40   22   25 1
  41   23   26 1
  42   23   27 2
  43   24   44 1
  44   26   28 2
  45   26   45 1
  46   27   29 1
  47   28   30 1
  48   28   29 1
  49   30   46 1
  50   30   47 1
  51   30   48 1

#	End of record

