#	Name: ASD00311505
#	Creating user name:	WinNT
#	Creation time:	15. 06. 2019 18:34

#	Modifying user name:	WinNT
#	Modification time:	15. 06. 2019 18:34

#	Program:	/corina/corina34_cracker 3.40 0067  02.08.2006

@<TRIPOS>MOLECULE
ASD00311505
  49   53    0    0    0
SMALL
NO_CHARGES


@<TRIPOS>ATOM
   1 C1            -0.0168     1.3872     0.0097 C.ar    
   2 C2             0.0021    -0.0041     0.0020 C.ar    
   3 C3             1.2220    -0.6786    -0.0133 C.ar    
   4 C4             2.4165     0.0460    -0.0208 C.ar    
   5 C5             2.3893     1.4258    -0.0126 C.ar    
   6 C6             1.1828     2.0988     0.0020 C.ar    
   7 C7            -1.3105     2.1125     0.0198 C.ar    
   8 C8            -1.3279     3.5070     0.0274 C.ar    
   9 C9            -2.5289     4.1808     0.0363 C.ar    
  10 C10           -3.7286     3.4680     0.0377 C.ar    
  11 C11           -3.7108     2.0727     0.0300 C.ar    
  12 C12           -2.5093     1.3997     0.0157 C.ar    
  13 C13            1.2515    -2.1557    -0.0210 C.2     
  14 O14            0.2120    -2.7841    -0.0140 O.2     
  15 O15            2.4313    -2.8057    -0.0357 O.3     
  16 C16           -7.2063     4.7012    -0.6854 C.2     
  17 C17           -6.1018     3.8962    -0.8901 C.2     
  18 C18           -6.1400     2.9250    -1.9327 C.2     
  19 C19           -7.2806     2.8089    -2.7166 C.2     
  20 C20           -8.3806     3.6546    -2.4664 C.2     
  21 N21           -8.3258     4.5627    -1.4799 N.am    
  22 C22           -5.0206     4.1923     0.0477 C.2     
  23 C23           -5.2945     5.1669     0.9122 C.2     
  24 S24           -6.9021     5.8120     0.6462 S.3     
  25 C25           -7.3406     1.8066    -3.8054 C.ar    
  26 C26           -8.2479     0.7495    -3.7347 C.ar    
  27 C27           -8.2994    -0.1808    -4.7524 C.ar    
  28 C28           -7.4533    -0.0670    -5.8410 C.ar    
  29 C29           -6.5509     0.9790    -5.9166 C.ar    
  30 C30           -6.4942     1.9191    -4.9082 C.ar    
  31 O31           -9.3870     3.5602    -3.1497 O.2     
  32 O32           -5.0733     2.1227    -2.1572 O.3     
  33 H33           -0.9244    -0.5590     0.0082 H       
  34 H34            3.3628    -0.4745    -0.0326 H       
  35 H35            3.3151     1.9819    -0.0181 H       
  36 H36            1.1685     3.1786     0.0080 H       
  37 H37           -0.3993     4.0585     0.0267 H       
  38 H38           -2.5423     5.2607     0.0426 H       
  39 H39           -4.6390     1.5206     0.0314 H       
  40 H40           -2.4954     0.3199     0.0057 H       
  41 H41            2.4001    -3.7722    -0.0403 H       
  42 H42           -9.0919     5.1363    -1.3218 H       
  43 H43           -4.6141     5.5167     1.6745 H       
  44 H44           -8.9084     0.6593    -2.8851 H       
  45 H45           -9.0015    -0.9998    -4.6988 H       
  46 H46           -7.4971    -0.7979    -6.6349 H       
  47 H47           -5.8925     1.0621    -6.7686 H       
  48 H48           -5.7925     2.7377    -4.9704 H       
  49 H49           -5.1971     1.4983    -2.8851 H       
@<TRIPOS>BOND
   1    1    2 ar
   2    1    6 ar
   3    1    7 1
   4    2    3 ar
   5    2   33 1
   6    3    4 ar
   7    3   13 1
   8    4    5 ar
   9    4   34 1
  10    5    6 ar
  11    5   35 1
  12    6   36 1
  13    7    8 ar
  14    7   12 ar
  15    8    9 ar
  16    8   37 1
  17    9   10 ar
  18    9   38 1
  19   10   11 ar
  20   10   22 1
  21   11   12 ar
  22   11   39 1
  23   12   40 1
  24   13   14 2
  25   13   15 1
  26   15   41 1
  27   16   17 2
  28   16   21 1
  29   16   24 1
  30   17   18 1
  31   17   22 1
  32   18   19 2
  33   18   32 1
  34   19   20 1
  35   19   25 1
  36   20   21 am
  37   20   31 2
  38   21   42 1
  39   22   23 2
  40   23   24 1
  41   23   43 1
  42   25   26 ar
  43   25   30 ar
  44   26   27 ar
  45   26   44 1
  46   27   28 ar
  47   27   45 1
  48   28   29 ar
  49   28   46 1
  50   29   30 ar
  51   29   47 1
  52   30   48 1
  53   32   49 1

#	End of record

