#	Name: ASD08150395
#	Creating user name:	WinNT
#	Creation time:	15. 06. 2019 21:15

#	Modifying user name:	WinNT
#	Modification time:	15. 06. 2019 21:15

#	Program:	/corina/corina34_cracker 3.40 0067  02.08.2006

@<TRIPOS>MOLECULE
ASD08150395
  36   39    0    0    0
SMALL
NO_CHARGES


@<TRIPOS>ATOM
   1 N1            -0.0163     1.3482     0.0095 N.am    
   2 C2             0.0025    -0.0040    -0.0032 C.2     
   3 C3             1.1727    -0.7024    -0.3589 C.2     
   4 C4             2.3172    -0.0120    -0.5915 C.2     
   5 C5             2.3250     1.3913    -0.4018 C.ar    
   6 C6             3.4844     2.1427    -0.6730 C.ar    
   7 N7             3.5195     3.4293    -0.4557 N.ar    
   8 C8             2.4878     4.0815     0.1000 C.ar    
   9 C9             1.3005     3.3863     0.4552 C.ar    
  10 C10            1.1481     2.0532     0.0071 C.ar    
  11 C11            0.3631     4.0469     1.2528 C.ar    
  12 C12            0.5275     5.3887     1.5593 C.ar    
  13 C13            1.6271     6.0995     1.0625 C.ar    
  14 C14            2.5880     5.4606     0.3441 C.ar    
  15 O15           -1.0048    -0.6194     0.2976 O.2     
  16 C16           -0.4695     6.0747     2.4190 C.2     
  17 C17           -1.3271     1.9982    -0.0800 C.3     
  18 C18           -0.4387     7.3839     2.8024 C.2     
  19 N19           -1.5209     7.6082     3.5748 N.pl3   
  20 N20           -2.2423     6.4125     3.6752 N.2     
  21 C21           -1.6225     5.4941     2.9825 C.2     
  22 C22           -1.8797     8.8830     4.2013 C.3     
  23 H23            1.1602    -1.7776    -0.4472 H       
  24 H24            3.2099    -0.5265    -0.9172 H       
  25 H25            4.3578     1.6451    -1.0680 H       
  26 H26           -0.4726     3.5230     1.6922 H       
  27 H27            1.7113     7.1587     1.2502 H       
  28 H28            3.4319     6.0155    -0.0394 H       
  29 H29           -1.7646     2.0724     0.9156 H       
  30 H30           -1.2095     2.9969    -0.5006 H       
  31 H31           -1.9820     1.4086    -0.7216 H       
  32 H32            0.3161     8.1089     2.5359 H       
  33 H33           -1.9359     4.4669     2.8679 H       
  34 H34           -2.5108     9.4565     3.5224 H       
  35 H35           -2.4217     8.6928     5.1277 H       
  36 H36           -0.9737     9.4481     4.4198 H       
@<TRIPOS>BOND
   1    1    2 am
   2    1   10 1
   3    1   17 1
   4    2    3 1
   5    2   15 2
   6    3    4 2
   7    3   23 1
   8    4    5 1
   9    4   24 1
  10    5    6 ar
  11    5   10 ar
  12    6    7 ar
  13    6   25 1
  14    7    8 ar
  15    8    9 ar
  16    8   14 ar
  17    9   10 ar
  18    9   11 ar
  19   11   12 ar
  20   11   26 1
  21   12   13 ar
  22   12   16 1
  23   13   14 ar
  24   13   27 1
  25   14   28 1
  26   16   18 2
  27   16   21 1
  28   17   29 1
  29   17   30 1
  30   17   31 1
  31   18   19 1
  32   18   32 1
  33   19   20 1
  34   19   22 1
  35   20   21 2
  36   21   33 1
  37   22   34 1
  38   22   35 1
  39   22   36 1

#	End of record

