#	Name: ASD09740078
#	Creating user name:	WinNT
#	Creation time:	15. 06. 2019 21:22

#	Modifying user name:	WinNT
#	Modification time:	15. 06. 2019 21:22

#	Program:	/corina/corina34_cracker 3.40 0067  02.08.2006

@<TRIPOS>MOLECULE
ASD09740078
  29   31    0    0    0
SMALL
NO_CHARGES


@<TRIPOS>ATOM
   1 O1            -0.0144     1.2087     0.0087 O.3     
   2 N2             0.0021    -0.0041     0.0020 N.2     
   3 C3             1.2352     1.6834    -0.0007 C.2     
   4 N4             2.0399     0.6500    -0.0139 N.2     
   5 C5             1.2356    -0.4367    -0.0121 C.2     
   6 C6             1.6717    -1.8560    -0.0239 C.ar    
   7 C7             1.6416     3.1345     0.0025 C.3     
   8 C8             0.7366    -2.8940    -0.0205 C.ar    
   9 C9             3.0281    -2.1896    -0.0445 C.ar    
  10 C10            3.3901    -3.5217    -0.0554 C.ar    
  11 N11            2.4754    -4.4718    -0.0465 N.ar    
  12 C12            1.1850    -4.1995    -0.0323 C.ar    
  13 C13            1.0755     3.8431    -1.2406 C.3     
  14 C14            0.1490     4.9638    -0.7253 C.3     
  15 C15            0.6675     5.2581     0.7042 C.3     
  16 C16            1.0393     3.8493     1.2297 C.3     
  17 H17            2.7283     3.2176     0.0172 H       
  18 H18           -0.3215    -2.6782    -0.0085 H       
  19 H19            3.7824    -1.4168    -0.0522 H       
  20 H20            4.4363    -3.7894    -0.0717 H       
  21 H21            0.4698    -5.0086    -0.0251 H       
  22 H22            1.8875     4.2709    -1.8287 H       
  23 H23            0.5069     3.1374    -1.8461 H       
  24 H24            0.2372     5.8505    -1.3532 H       
  25 H25           -0.8846     4.6194    -0.6929 H       
  26 H26            1.5461     5.9024     0.6715 H       
  27 H27           -0.1171     5.7038     1.3156 H       
  28 H28            0.1494     3.3249     1.5779 H       
  29 H29            1.7771     3.9226     2.0287 H       
@<TRIPOS>BOND
   1    1    2 1
   2    1    3 1
   3    2    5 2
   4    3    4 2
   5    3    7 1
   6    4    5 1
   7    5    6 1
   8    6    8 ar
   9    6    9 ar
  10    7   13 1
  11    7   16 1
  12    7   17 1
  13    8   12 ar
  14    8   18 1
  15    9   10 ar
  16    9   19 1
  17   10   11 ar
  18   10   20 1
  19   11   12 ar
  20   12   21 1
  21   13   14 1
  22   13   22 1
  23   13   23 1
  24   14   15 1
  25   14   24 1
  26   14   25 1
  27   15   16 1
  28   15   26 1
  29   15   27 1
  30   16   28 1
  31   16   29 1

#	End of record

