#	Name: ASD03730250
#	Creating user name:	WinNT
#	Creation time:	15. 06. 2019 20:44

#	Modifying user name:	WinNT
#	Modification time:	15. 06. 2019 20:44

#	Program:	/corina/corina34_cracker 3.40 0067  02.08.2006

@<TRIPOS>MOLECULE
ASD03730250
  57   62    0    0    0
SMALL
NO_CHARGES


@<TRIPOS>ATOM
   1 O1            -0.4557     1.1411     1.2869 O.3     
   2 C2            -0.3870    -0.2953     1.3592 C.3     
   3 O3             0.6973    -0.6313     0.4736 O.3     
   4 C4             1.5177     0.4605     0.4699 C.ar    
   5 C5             0.8077     1.5504     0.9686 C.ar    
   6 C6             2.8349     0.6145     0.0763 C.ar    
   7 C7             3.4590     1.8548     0.1727 C.ar    
   8 C8             2.7367     2.9383     0.6635 C.ar    
   9 C9             1.4250     2.7865     1.0623 C.ar    
  10 O10            4.7375     2.2137    -0.1392 O.3     
  11 C11            3.6612     4.1255     0.6185 C.3     
  12 C12            4.8068     3.6455    -0.2831 C.3     
  13 N13            3.0921     6.3033     1.0126 N.am    
  14 C14            2.9889     5.3492     0.0657 C.2     
  15 C15            4.1495     4.5212     1.9802 C.ar    
  16 C16            4.8404     3.8545     2.9826 C.ar    
  17 C17            5.1549     4.5192     4.1675 C.ar    
  18 C18            4.7759     5.8363     4.3346 C.ar    
  19 C19            4.0898     6.4988     3.3373 C.ar    
  20 C20            3.7686     5.8480     2.1474 C.ar    
  21 O21            2.4581     5.4581    -1.0194 O.2     
  22 C22            2.5568     7.6594     0.8688 C.3     
  23 C23            1.1195     7.6985     1.3921 C.3     
  24 C24            0.5605     9.1148     1.2419 C.3     
  25 C25           -0.8767     9.1539     1.7651 C.3     
  26 C26           -1.4358    10.5701     1.6150 C.3     
  27 C27            5.2429     2.4386     2.7941 C.ar    
  28 C28            6.1372     2.0953     1.7827 C.ar    
  29 C29            6.5094     0.7749     1.6106 C.ar    
  30 C30            5.9941    -0.2059     2.4417 C.ar    
  31 C31            5.1046     0.1310     3.4485 C.ar    
  32 C32            4.7318     1.4497     3.6317 C.ar    
  33 F33            4.6046    -0.8298     4.2561 F       
  34 F34            7.3767     0.4409     0.6301 F       
  35 H35           -0.1644    -0.6173     2.3765 H       
  36 H36           -1.3184    -0.7413     1.0105 H       
  37 H37            3.3827    -0.2333    -0.3079 H       
  38 H38            0.8780     3.6337     1.4488 H       
  39 H39            5.7647     4.0245     0.0731 H       
  40 H40            4.6337     3.9393    -1.3184 H       
  41 H41            5.6922     4.0058     4.9511 H       
  42 H42            5.0185     6.3518     5.2521 H       
  43 H43            3.7992     7.5291     3.4800 H       
  44 H44            3.1708     8.3549     1.4410 H       
  45 H45            2.5684     7.9450    -0.1830 H       
  46 H46            0.5055     7.0030     0.8199 H       
  47 H47            1.1079     7.4129     2.4439 H       
  48 H48            1.1745     9.8103     1.8141 H       
  49 H49            0.5721     9.4003     0.1901 H       
  50 H50           -1.4907     8.4583     1.1930 H       
  51 H51           -0.8884     8.8683     2.8170 H       
  52 H52           -2.4597    10.5980     1.9877 H       
  53 H53           -0.8218    11.2657     2.1871 H       
  54 H54           -1.4241    10.8557     0.5631 H       
  55 H55            6.5390     2.8594     1.1338 H       
  56 H56            6.2864    -1.2364     2.3040 H       
  57 H57            4.0419     1.7122     4.4200 H       
@<TRIPOS>BOND
   1    1    2 1
   2    1    5 1
   3    2    3 1
   4    2   35 1
   5    2   36 1
   6    3    4 1
   7    4    5 ar
   8    4    6 ar
   9    5    9 ar
  10    6    7 ar
  11    6   37 1
  12    7    8 ar
  13    7   10 1
  14    8    9 ar
  15    8   11 1
  16    9   38 1
  17   10   12 1
  18   11   12 1
  19   11   14 1
  20   11   15 1
  21   12   39 1
  22   12   40 1
  23   13   14 am
  24   13   20 1
  25   13   22 1
  26   14   21 2
  27   15   16 ar
  28   15   20 ar
  29   16   17 ar
  30   16   27 1
  31   17   18 ar
  32   17   41 1
  33   18   19 ar
  34   18   42 1
  35   19   20 ar
  36   19   43 1
  37   22   23 1
  38   22   44 1
  39   22   45 1
  40   23   24 1
  41   23   46 1
  42   23   47 1
  43   24   25 1
  44   24   48 1
  45   24   49 1
  46   25   26 1
  47   25   50 1
  48   25   51 1
  49   26   52 1
  50   26   53 1
  51   26   54 1
  52   27   28 ar
  53   27   32 ar
  54   28   29 ar
  55   28   55 1
  56   29   30 ar
  57   29   34 1
  58   30   31 ar
  59   30   56 1
  60   31   32 ar
  61   31   33 1
  62   32   57 1

#	End of record

