#	Name: ASD05170046
#	Creating user name:	WinNT
#	Creation time:	15. 06. 2019 20:57

#	Modifying user name:	WinNT
#	Modification time:	15. 06. 2019 20:57

#	Program:	/corina/corina34_cracker 3.40 0067  02.08.2006

@<TRIPOS>MOLECULE
ASD05170046
  44   48    0    0    0
SMALL
NO_CHARGES


@<TRIPOS>ATOM
   1 C1            -0.0178     1.4608     0.0101 C.3     
   2 N2             0.0021    -0.0041     0.0020 N.am    
   3 C3             0.0054    -0.6544    -1.1708 C.2     
   4 O4             0.0257    -0.0164    -2.2070 O.2     
   5 C5            -0.0145    -2.1167    -1.2286 C.2     
   6 C6             0.6664    -2.8826    -2.1560 C.2     
   7 C7             0.3882    -4.2214    -1.8670 C.2     
   8 C8            -0.4370    -4.2518    -0.7951 C.2     
   9 N9            -0.6911    -2.9741    -0.3959 N.pl3   
  10 C10           -1.5118    -2.6328     0.6888 C.ar    
  11 C11           -2.6496    -3.3921     0.9318 C.ar    
  12 C12           -3.4822    -3.0743     2.0005 C.ar    
  13 C13           -3.1683    -1.9936     2.8225 C.ar    
  14 C14           -2.0363    -1.2455     2.5744 C.ar    
  15 C15           -1.2060    -1.5608     1.5104 C.ar    
  16 C16            0.0239    -0.7242     1.2681 C.3     
  17 C17            1.3350    -1.4891     1.5096 C.3     
  18 C18            1.8701    -0.2049     2.1653 C.3     
  19 C19            0.4061     0.1581     2.4663 C.3     
  20 C20           -4.6990    -3.8820     2.2633 C.ar    
  21 C21           -5.5437    -3.5658     3.3314 C.ar    
  22 C22           -6.6657    -4.3487     3.5354 C.ar    
  23 C23           -6.9142    -5.4121     2.6818 C.ar    
  24 F24           -8.0088    -6.1798     2.8760 F       
  25 N25           -6.0967    -5.6856     1.6810 N.ar    
  26 C26           -5.0199    -4.9632     1.4463 C.ar    
  27 H27            1.0048     1.8381     0.0023 H       
  28 H28           -0.5450     1.8219    -0.8730 H       
  29 H29           -0.5280     1.8123     0.9069 H       
  30 H30            1.2946    -2.5156    -2.9542 H       
  31 H31            0.7648    -5.0793    -2.4042 H       
  32 H32           -0.8305    -5.1442    -0.3312 H       
  33 H33           -2.8879    -4.2285     0.2915 H       
  34 H34           -3.8110    -1.7419     3.6530 H       
  35 H35           -1.7953    -0.4089     3.2134 H       
  36 H36            1.2324    -2.3236     2.2033 H       
  37 H37            1.8571    -1.7614     0.5923 H       
  38 H38            2.4673    -0.3871     3.0588 H       
  39 H39            2.3531     0.4750     1.4635 H       
  40 H40            0.1793     1.2143     2.3208 H       
  41 H41            0.0489    -0.2248     3.4222 H       
  42 H42           -5.3255    -2.7313     3.9812 H       
  43 H43           -7.3404    -4.1339     4.3509 H       
  44 H44           -4.3779    -5.2146     0.6151 H       
@<TRIPOS>BOND
   1    1    2 1
   2    1   27 1
   3    1   28 1
   4    1   29 1
   5    2   16 1
   6    2    3 am
   7    3    4 2
   8    3    5 1
   9    5    9 1
  10    5    6 2
  11    6    7 1
  12    6   30 1
  13    7    8 2
  14    7   31 1
  15    8    9 1
  16    8   32 1
  17    9   10 1
  18   10   15 ar
  19   10   11 ar
  20   11   12 ar
  21   11   33 1
  22   12   13 ar
  23   12   20 1
  24   13   14 ar
  25   13   34 1
  26   14   15 ar
  27   14   35 1
  28   15   16 1
  29   16   19 1
  30   16   17 1
  31   17   18 1
  32   17   36 1
  33   17   37 1
  34   18   19 1
  35   18   38 1
  36   18   39 1
  37   19   40 1
  38   19   41 1
  39   20   26 ar
  40   20   21 ar
  41   21   22 ar
  42   21   42 1
  43   22   23 ar
  44   22   43 1
  45   23   24 1
  46   23   25 ar
  47   25   26 ar
  48   26   44 1

#	End of record

