#	Name: ASD03330644
#	Creating user name:	WinNT
#	Creation time:	15. 06. 2019 20:37

#	Modifying user name:	WinNT
#	Modification time:	15. 06. 2019 20:37

#	Program:	/corina/corina34_cracker 3.40 0067  02.08.2006

@<TRIPOS>MOLECULE
ASD03330644
  60   62    0    0    0
SMALL
NO_CHARGES


@<TRIPOS>ATOM
   1 C1             0.1992     2.1515    -1.0463 C.2     
   2 N2             0.2990     0.9103    -1.5775 N.pl3   
   3 C3             1.4550     2.5361    -0.6842 C.2     
   4 N4             2.3024     1.5371    -1.0134 N.2     
   5 C5             1.6170     0.5584    -1.5562 C.2     
   6 C6             2.1795    -0.7138    -2.0605 C.ar    
   7 C7             1.8229     3.8133    -0.0478 C.2     
   8 O8             0.9647     4.6386     0.2002 O.2     
   9 C9             3.4763     5.3366     0.8920 C.3     
  10 N10            3.1105     4.0668     0.2593 N.am    
  11 C11            3.2901     5.2241     2.4064 C.3     
  12 C12            4.1176     4.0513     2.9363 C.3     
  13 C13            3.7548     6.5194     3.0750 C.3     
  14 C14            1.8117     4.9890     2.7224 C.3     
  15 C15            4.9172     5.6539     0.5852 C.2     
  16 N16            5.3672     6.9193     0.6974 N.am    
  17 O17            5.6719     4.7705     0.2374 O.2     
  18 C18            6.7387     7.2470     0.2999 C.3     
  19 C19           -0.8214     0.1025    -2.0674 C.3     
  20 C20           -1.7133     0.9693    -2.9617 C.3     
  21 C21           -2.7538     1.6886    -2.1092 C.3     
  22 N22           -2.2102     2.0287    -0.7926 N.3     
  23 C23           -1.0706     2.9507    -0.9075 C.3     
  24 C24           -3.2526     2.5863     0.0794 C.3     
  25 C25            3.4748    -0.7509    -2.5763 C.ar    
  26 C26            3.9939    -1.9417    -3.0455 C.ar    
  27 C27            3.2310    -3.0962    -3.0043 C.ar    
  28 C28            1.9455    -3.0646    -2.4940 C.ar    
  29 C29            1.4182    -1.8824    -2.0166 C.ar    
  30 Cl30           5.6057    -1.9907    -3.6886 Cl      
  31 H31            2.8389     6.1319     0.5056 H       
  32 H32            3.7950     3.4086     0.0615 H       
  33 H33            5.1709     4.2188     2.7112 H       
  34 H34            3.9850     3.9712     4.0152 H       
  35 H35            3.7866     3.1285     2.4600 H       
  36 H36            3.1809     7.3580     2.6807 H       
  37 H37            3.6008     6.4481     4.1517 H       
  38 H38            4.8138     6.6750     2.8690 H       
  39 H39            1.4806     4.0661     2.2461 H       
  40 H40            1.6790     4.9088     3.8014 H       
  41 H41            1.2221     5.8245     2.3450 H       
  42 H42            4.7830     7.6131     1.0412 H       
  43 H43            6.9196     8.3097     0.4611 H       
  44 H44            7.4393     6.6644     0.8980 H       
  45 H45            6.8775     7.0107    -0.7551 H       
  46 H46           -0.4386    -0.7406    -2.6425 H       
  47 H47           -1.4020    -0.2660    -1.2217 H       
  48 H48           -1.0996     1.7047    -3.4819 H       
  49 H49           -2.2176     0.3371    -3.6925 H       
  50 H50           -3.0619     2.6029    -2.6163 H       
  51 H51           -3.6215     1.0413    -1.9817 H       
  52 H52           -1.0138     3.5729    -0.0143 H       
  53 H53           -1.2008     3.5832    -1.7857 H       
  54 H54           -4.0486     1.8530     0.2087 H       
  55 H55           -2.8219     2.8301     1.0505 H       
  56 H56           -3.6609     3.4895    -0.3742 H       
  57 H57            4.0703     0.1494    -2.6091 H       
  58 H58            3.6409    -4.0251    -3.3722 H       
  59 H59            1.3550    -3.9684    -2.4648 H       
  60 H60            0.4146    -1.8596    -1.6183 H       
@<TRIPOS>BOND
   1    1    2 1
   2    1    3 2
   3    1   23 1
   4    2   19 1
   5    2    5 1
   6    3    4 1
   7    3    7 1
   8    4    5 2
   9    5    6 1
  10    6   25 ar
  11    6   29 ar
  12    7    8 2
  13    7   10 am
  14    9   10 1
  15    9   11 1
  16    9   15 1
  17    9   31 1
  18   10   32 1
  19   11   12 1
  20   11   13 1
  21   11   14 1
  22   12   33 1
  23   12   34 1
  24   12   35 1
  25   13   36 1
  26   13   37 1
  27   13   38 1
  28   14   39 1
  29   14   40 1
  30   14   41 1
  31   15   16 am
  32   15   17 2
  33   16   18 1
  34   16   42 1
  35   18   43 1
  36   18   44 1
  37   18   45 1
  38   19   20 1
  39   19   46 1
  40   19   47 1
  41   20   21 1
  42   20   48 1
  43   20   49 1
  44   21   22 1
  45   21   50 1
  46   21   51 1
  47   22   23 1
  48   22   24 1
  49   23   52 1
  50   23   53 1
  51   24   54 1
  52   24   55 1
  53   24   56 1
  54   25   26 ar
  55   25   57 1
  56   26   27 ar
  57   26   30 1
  58   27   28 ar
  59   27   58 1
  60   28   29 ar
  61   28   59 1
  62   29   60 1

#	End of record

