#	Name: ASD09116376
#	Creating user name:	WinNT
#	Creation time:	15. 06. 2019 21:21

#	Modifying user name:	WinNT
#	Modification time:	15. 06. 2019 21:21

#	Program:	/corina/corina34_cracker 3.40 0067  02.08.2006

@<TRIPOS>MOLECULE
ASD09116376
  56   61    0    0    0
SMALL
NO_CHARGES


@<TRIPOS>ATOM
   1 N1            -0.0294     1.4178     0.1426 N.2     
   2 N2            -0.0204     0.0186     0.2610 N.pl3   
   3 C3             1.2226     1.8075     0.1135 C.2     
   4 N4             2.0159     0.7338     0.2068 N.2     
   5 C5             1.2806    -0.3537     0.2966 C.2     
   6 N6             1.7532    -1.6476     0.4072 N.pl3   
   7 C7            -1.1330    -0.8220     0.3291 C.ar    
   8 N8             1.6572     3.1283     0.0026 N.pl3   
   9 C9             3.0215     3.4264     0.0969 C.ar    
  10 C10            3.5411     4.5227    -0.5810 C.ar    
  11 C11            3.8535     2.6299     0.8722 C.ar    
  12 C12            5.2022     2.9217     0.9683 C.ar    
  13 C13            5.7208     4.0109     0.2893 C.ar    
  14 C14            4.8907     4.8121    -0.4824 C.ar    
  15 N15           -1.0313    -2.0872    -0.0496 N.ar    
  16 N16           -2.0268    -2.8999    -0.0157 N.ar    
  17 C17           -3.2221    -2.5155     0.4022 C.ar    
  18 C18           -3.4187    -1.2033     0.8418 C.ar    
  19 C19           -2.3522    -0.3302     0.8022 C.ar    
  20 C20           -4.3838    -3.4346     0.3913 C.ar    
  21 C21           -5.5809    -3.0020    -0.1814 C.ar    
  22 C22           -5.6441    -1.6415    -0.8196 C.3     
  23 C23           -5.7422    -0.5380     0.2302 C.3     
  24 C24           -4.7605    -0.7886     1.3717 C.3     
  25 C25           -4.2967    -4.7080     0.9431 C.ar    
  26 C26           -5.4051    -5.5326     0.9378 C.ar    
  27 C27           -6.5955    -5.0923     0.3884 C.ar    
  28 C28           -6.6837    -3.8288    -0.1700 C.ar    
  29 O29            7.0510     4.3074     0.3789 O.3     
  30 C30            7.8141     4.1225    -0.8150 C.3     
  31 C31            7.7162     5.3459    -1.7128 C.3     
  32 C32            6.3037     5.5748    -2.2272 C.3     
  33 O33            5.4144     5.8833    -1.1462 O.3     
  34 H34            2.7084    -1.8154     0.4237 H       
  35 H35            1.1296    -2.3881     0.4683 H       
  36 H36            1.0139     3.8402    -0.1398 H       
  37 H37            2.8950     5.1454    -1.1820 H       
  38 H38            3.4468     1.7810     1.4016 H       
  39 H39            5.8488     2.3017     1.5715 H       
  40 H40           -2.4573     0.6973     1.1177 H       
  41 H41           -4.7460    -1.4860    -1.4175 H       
  42 H42           -6.5171    -1.5932    -1.4704 H       
  43 H43           -5.5144     0.4211    -0.2350 H       
  44 H44           -6.7564    -0.5109     0.6286 H       
  45 H45           -5.1516    -1.5776     2.0141 H       
  46 H46           -4.6485     0.1252     1.9553 H       
  47 H47           -3.3673    -5.0507     1.3734 H       
  48 H48           -5.3417    -6.5233     1.3632 H       
  49 H49           -7.4611    -5.7381     0.3947 H       
  50 H50           -7.6166    -3.4906    -0.5963 H       
  51 H51            8.8581     3.9539    -0.5510 H       
  52 H52            7.4356     3.2526    -1.3517 H       
  53 H53            8.0334     6.2236    -1.1495 H       
  54 H54            8.3848     5.2141    -2.5635 H       
  55 H55            6.3093     6.4045    -2.9341 H       
  56 H56            5.9564     4.6747    -2.7345 H       
@<TRIPOS>BOND
   1    1    2 1
   2    1    3 2
   3    2    7 1
   4    2    5 1
   5    3    4 1
   6    3    8 1
   7    4    5 2
   8    5    6 1
   9    6   34 1
  10    6   35 1
  11    7   15 ar
  12    7   19 ar
  13    8    9 1
  14    8   36 1
  15    9   10 ar
  16    9   11 ar
  17   10   14 ar
  18   10   37 1
  19   11   12 ar
  20   11   38 1
  21   12   13 ar
  22   12   39 1
  23   13   14 ar
  24   13   29 1
  25   14   33 1
  26   15   16 ar
  27   16   17 ar
  28   17   18 ar
  29   17   20 1
  30   18   19 ar
  31   18   24 1
  32   19   40 1
  33   20   21 ar
  34   20   25 ar
  35   21   22 1
  36   21   28 ar
  37   22   23 1
  38   22   41 1
  39   22   42 1
  40   23   24 1
  41   23   43 1
  42   23   44 1
  43   24   45 1
  44   24   46 1
  45   25   26 ar
  46   25   47 1
  47   26   27 ar
  48   26   48 1
  49   27   28 ar
  50   27   49 1
  51   28   50 1
  52   29   30 1
  53   30   31 1
  54   30   51 1
  55   30   52 1
  56   31   32 1
  57   31   53 1
  58   31   54 1
  59   32   33 1
  60   32   55 1
  61   32   56 1

#	End of record

