#	Name: ASD09610042
#	Creating user name:	WinNT
#	Creation time:	15. 06. 2019 21:22

#	Modifying user name:	WinNT
#	Modification time:	15. 06. 2019 21:22

#	Program:	/corina/corina34_cracker 3.40 0067  02.08.2006

@<TRIPOS>MOLECULE
ASD09610042
  39   40    0    0    0
SMALL
NO_CHARGES


@<TRIPOS>ATOM
   1 C1            -0.0163     1.3544     0.0095 C.2     
   2 C2             0.0021    -0.0041     0.0020 C.2     
   3 C3             1.2383    -0.6836    -0.0134 C.2     
   4 C4             2.4648     0.1396    -0.0207 C.ar    
   5 C5             3.7299    -0.4441    -0.0364 C.ar    
   6 C6             4.8498     0.3599    -0.0432 C.ar    
   7 C7             4.7190     1.7413    -0.0340 C.ar    
   8 C8             3.4722     2.3295    -0.0185 C.ar    
   9 C9             2.3315     1.5362    -0.0119 C.ar    
  10 O10            1.1014     2.0915     0.0028 O.3     
  11 O11            1.2922    -1.9027    -0.0201 O.2     
  12 C12           -1.2898    -0.7800     0.0107 C.3     
  13 C13           -1.6765    -1.1427    -1.4245 C.3     
  14 C14           -2.9880    -1.9305    -1.4157 C.3     
  15 I15            6.7567    -0.5073    -0.0668 I       
  16 O16           -1.2091     1.9862     0.0185 O.3     
  17 C17           -1.1864     3.4150     0.0261 C.3     
  18 C18           -2.6206     3.9478     0.0357 C.3     
  19 C19           -2.5962     5.4776     0.0439 C.3     
  20 C20           -4.0304     6.0104     0.0535 C.3     
  21 H21            3.8326    -1.5192    -0.0429 H       
  22 H22            5.6028     2.3620    -0.0388 H       
  23 H23            3.3822     3.4057    -0.0111 H       
  24 H24           -1.1620    -1.6919     0.5940 H       
  25 H25           -2.0764    -0.1710     0.4561 H       
  26 H26           -1.8043    -0.2308    -2.0078 H       
  27 H27           -0.8898    -1.7517    -1.8699 H       
  28 H28           -3.2636    -2.1889    -2.4382 H       
  29 H29           -2.8602    -2.8424    -0.8324 H       
  30 H30           -3.7747    -1.3215    -0.9703 H       
  31 H31           -0.6627     3.7653     0.9156 H       
  32 H32           -0.6710     3.7750    -0.8643 H       
  33 H33           -3.1442     3.5975    -0.8538 H       
  34 H34           -3.1360     3.5879     0.9262 H       
  35 H35           -2.0725     5.8279     0.9334 H       
  36 H36           -2.0808     5.8376    -0.8465 H       
  37 H37           -4.5541     5.6602    -0.8360 H       
  38 H38           -4.5458     5.6505     0.9439 H       
  39 H39           -4.0131     7.1003     0.0593 H       
@<TRIPOS>BOND
   1    1    2 2
   2    1   10 1
   3    1   16 1
   4    2    3 1
   5    2   12 1
   6    3    4 1
   7    3   11 2
   8    4    5 ar
   9    4    9 ar
  10    5    6 ar
  11    5   21 1
  12    6    7 ar
  13    6   15 1
  14    7    8 ar
  15    7   22 1
  16    8    9 ar
  17    8   23 1
  18    9   10 1
  19   12   13 1
  20   12   24 1
  21   12   25 1
  22   13   14 1
  23   13   26 1
  24   13   27 1
  25   14   28 1
  26   14   29 1
  27   14   30 1
  28   16   17 1
  29   17   18 1
  30   17   31 1
  31   17   32 1
  32   18   19 1
  33   18   33 1
  34   18   34 1
  35   19   20 1
  36   19   35 1
  37   19   36 1
  38   20   37 1
  39   20   38 1
  40   20   39 1

#	End of record

