#	Name: ASD01910143
#	Creating user name:	WinNT
#	Creation time:	15. 06. 2019 19:55

#	Modifying user name:	WinNT
#	Modification time:	15. 06. 2019 19:55

#	Program:	/corina/corina34_cracker 3.40 0067  02.08.2006

@<TRIPOS>MOLECULE
ASD01910143
  43   45    0    0    0
SMALL
NO_CHARGES


@<TRIPOS>ATOM
   1 C1            -0.0341     1.4257     0.1903 C.ar    
   2 C2            -0.0264     0.0458     0.0864 C.ar    
   3 C3             1.1699    -0.6391    -0.0356 C.ar    
   4 C4             2.3643     0.0501    -0.0544 C.ar    
   5 C5             2.3645     1.4438     0.0501 C.ar    
   6 C6             1.1523     2.1287     0.1730 C.ar    
   7 C7             3.6005     2.1666     0.0313 C.1     
   8 C8             4.6139     2.7592     0.0160 C.1     
   9 C9             5.8499     3.4820    -0.0028 C.ar    
  10 C10            5.8465     4.8774     0.1020 C.ar    
  11 C11            7.0258     5.5661     0.0846 C.ar    
  12 C12            8.2362     4.8772    -0.0381 C.ar    
  13 C13            8.2403     3.4831    -0.1433 C.ar    
  14 C14            7.0621     2.7928    -0.1202 C.ar    
  15 C15            9.5105     5.6223    -0.0569 C.2     
  16 O16           10.4815     5.1809     0.5266 O.2     
  17 N17            9.5975     6.7919    -0.7209 N.am    
  18 C18           10.8176     7.6103    -0.6519 C.3     
  19 C19           11.2534     7.9558    -2.0798 C.3     
  20 N20           10.1297     8.5753    -2.7949 N.3     
  21 C21            9.0028     7.6423    -2.9270 C.3     
  22 C22            8.4770     7.2809    -1.5387 C.3     
  23 C23           10.5542     9.0773    -4.1086 C.3     
  24 H24           -0.9718     1.9539     0.2808 H       
  25 H25           -0.9586    -0.4993     0.1009 H       
  26 H26            1.1682    -1.7162    -0.1159 H       
  27 H27            3.2971    -0.4858    -0.1493 H       
  28 H28            1.1447     3.2056     0.2539 H       
  29 H29            4.9116     5.4097     0.1964 H       
  30 H30            7.0233     6.6430     0.1651 H       
  31 H31            9.1757     2.9517    -0.2384 H       
  32 H32            7.0655     1.7158    -0.2011 H       
  33 H33           10.6127     8.5273    -0.0995 H       
  34 H34           11.6077     7.0483    -0.1538 H       
  35 H35           12.0912     8.6523    -2.0459 H       
  36 H36           11.5569     7.0460    -2.5977 H       
  37 H37            8.2083     8.1113    -3.5075 H       
  38 H38            9.3376     6.7368    -3.4331 H       
  39 H39            7.7183     6.5031    -1.6255 H       
  40 H40            8.0468     8.1651    -1.0684 H       
  41 H41           10.9363     8.2506    -4.7073 H       
  42 H42            9.7031     9.5309    -4.6166 H       
  43 H43           11.3382     9.8231    -3.9765 H       
@<TRIPOS>BOND
   1    1    2 ar
   2    1    6 ar
   3    1   24 1
   4    2    3 ar
   5    2   25 1
   6    3    4 ar
   7    3   26 1
   8    4    5 ar
   9    4   27 1
  10    5    6 ar
  11    5    7 1
  12    6   28 1
  13    7    8 3
  14    8    9 1
  15    9   10 ar
  16    9   14 ar
  17   10   11 ar
  18   10   29 1
  19   11   12 ar
  20   11   30 1
  21   12   13 ar
  22   12   15 1
  23   13   14 ar
  24   13   31 1
  25   14   32 1
  26   15   16 2
  27   15   17 am
  28   17   18 1
  29   17   22 1
  30   18   19 1
  31   18   33 1
  32   18   34 1
  33   19   20 1
  34   19   35 1
  35   19   36 1
  36   20   21 1
  37   20   23 1
  38   21   22 1
  39   21   37 1
  40   21   38 1
  41   22   39 1
  42   22   40 1
  43   23   41 1
  44   23   42 1
  45   23   43 1

#	End of record

