#	Name: ASD08170066
#	Creating user name:	WinNT
#	Creation time:	15. 06. 2019 21:17

#	Modifying user name:	WinNT
#	Modification time:	15. 06. 2019 21:17

#	Program:	/corina/corina34_cracker 3.40 0067  02.08.2006

@<TRIPOS>MOLECULE
ASD08170066
  53   56    0    0    0
SMALL
NO_CHARGES


@<TRIPOS>ATOM
   1 N1            -0.0150     1.2583     0.0090 N.2     
   2 N2             0.0021    -0.0041     0.0020 N.2     
   3 C3             1.1271     1.8769     0.0014 C.2     
   4 S4             2.3826     0.7116    -0.0169 S.3     
   5 C5             1.1681    -0.5677    -0.0121 C.2     
   6 C6             1.4387    -2.0502    -0.0227 C.3     
   7 C7             1.5165    -2.5442    -1.4687 C.3     
   8 C8             2.1699    -6.2152    -3.4347 C.3     
   9 C9             2.2167    -6.5408    -4.9053 C.2     
  10 N10            3.2694    -6.5184    -5.6596 N.2     
  11 S11            0.8491    -7.0282    -5.9071 S.3     
  12 C12            1.9000    -7.1354    -7.2557 C.2     
  13 N13            3.1017    -6.8250    -6.8728 N.2     
  14 N14            1.5289    -7.4992    -8.5457 N.am    
  15 C15            2.4537    -7.5464    -9.5250 C.2     
  16 O16            3.6096    -7.2716    -9.2812 O.2     
  17 C17            2.0516    -7.9407   -10.9228 C.3     
  18 N18            1.3017     3.2566     0.0067 N.am    
  19 C19            0.2284     4.0717     0.0214 C.2     
  20 C20            0.4176     5.5667     0.0272 C.3     
  21 O21           -0.8897     3.6019     0.0299 O.2     
  22 C22            1.8986    -4.7206    -3.2516 C.3     
  23 C23            3.2622    -7.9149   -11.8199 C.2     
  24 C24           -0.9288     6.2434     0.0438 C.2     
  25 S25            1.8422    -4.3286    -1.4814 S.3     
  26 C26           -1.6052     6.5832     1.1422 C.2     
  27 S27            3.8156    -6.5195   -12.7364 S.3     
  28 C28            4.0813    -8.9453   -12.0359 C.2     
  29 C29            5.1298    -8.6855   -12.9015 C.2     
  30 C30            5.1635    -7.4435   -13.3866 C.2     
  31 C31           -2.8245     7.1960     0.9102 C.2     
  32 C32           -3.1383     7.3539    -0.3766 C.2     
  33 S33           -1.8454     6.7129    -1.3821 S.3     
  34 H34            2.3843    -2.2506     0.4811 H       
  35 H35            0.6334    -2.5702     0.4961 H       
  36 H36            0.5709    -2.3438    -1.9724 H       
  37 H37            2.3218    -2.0242    -1.9874 H       
  38 H38            1.3741    -6.7896    -2.9605 H       
  39 H39            3.1250    -6.4700    -2.9755 H       
  40 H40            0.6045    -7.7190    -8.7407 H       
  41 H41            1.6303    -8.9459   -10.9098 H       
  42 H42            1.3064    -7.2392   -11.2980 H       
  43 H43            2.1959     3.6323    -0.0001 H       
  44 H44            0.9817     5.8582     0.9132 H       
  45 H45            0.9643     5.8672    -0.8667 H       
  46 H46            2.6943    -4.1461    -3.7258 H       
  47 H47            0.9434    -4.4658    -3.7108 H       
  48 H48           -1.2300     6.3941     2.1371 H       
  49 H49            3.9375    -9.9092   -11.5703 H       
  50 H50            5.8658    -9.4314   -13.1627 H       
  51 H51            5.9060    -7.0629   -14.0724 H       
  52 H52           -3.4727     7.5213     1.7104 H       
  53 H53           -4.0455     7.8099    -0.7448 H       
@<TRIPOS>BOND
   1    1    2 1
   2    1    3 2
   3    2    5 2
   4    3    4 1
   5    3   18 1
   6    4    5 1
   7    5    6 1
   8    6    7 1
   9    6   34 1
  10    6   35 1
  11    7   25 1
  12    7   36 1
  13    7   37 1
  14    8    9 1
  15    8   22 1
  16    8   38 1
  17    8   39 1
  18    9   10 2
  19    9   11 1
  20   10   13 1
  21   11   12 1
  22   12   13 2
  23   12   14 1
  24   14   15 am
  25   14   40 1
  26   15   16 2
  27   15   17 1
  28   17   23 1
  29   17   41 1
  30   17   42 1
  31   18   19 am
  32   18   43 1
  33   19   20 1
  34   19   21 2
  35   20   24 1
  36   20   44 1
  37   20   45 1
  38   22   25 1
  39   22   46 1
  40   22   47 1
  41   23   27 1
  42   23   28 2
  43   24   26 2
  44   24   33 1
  45   26   31 1
  46   26   48 1
  47   27   30 1
  48   28   29 1
  49   28   49 1
  50   29   30 2
  51   29   50 1
  52   30   51 1
  53   31   32 2
  54   31   52 1
  55   32   33 1
  56   32   53 1

#	End of record

