#	Name: ASD00841546
#	Creating user name:	WinNT
#	Creation time:	15. 06. 2019 18:42

#	Modifying user name:	WinNT
#	Modification time:	15. 06. 2019 18:42

#	Program:	/corina/corina34_cracker 3.40 0067  02.08.2006

@<TRIPOS>MOLECULE
ASD00841546
  95  100    0    0    0
SMALL
NO_CHARGES


@<TRIPOS>ATOM
   1 C1            -0.0143     1.3803     0.0275 C.ar    
   2 C2             0.0032    -0.0067     0.0120 C.ar    
   3 C3             1.2148    -0.6826    -0.0059 C.ar    
   4 C4             2.4001     0.0266    -0.0083 C.ar    
   5 C5             2.3799     1.4092     0.0076 C.ar    
   6 C6             1.1740     2.0851     0.0250 C.ar    
   7 C7             1.2376    -2.1894    -0.0223 C.3     
   8 C8             0.4952    -2.7182    -1.2310 C.2     
   9 N9             2.6176    -2.6810    -0.0116 N.am    
  10 C10            3.4640    -2.3347    -1.0016 C.2     
  11 N11            4.7595    -2.7012    -0.9396 N.am    
  12 O12            3.0589    -1.6916    -1.9506 O.2     
  13 C13            5.2900    -3.3772     0.2522 C.3     
  14 C14            6.5163    -2.6065     0.7513 C.3     
  15 C15            7.5242    -2.4641    -0.3915 C.3     
  16 C16            6.8900    -1.6727    -1.5377 C.3     
  17 C17            5.6666    -2.4379    -2.0650 C.3     
  18 N18            8.7158    -1.7544     0.0925 N.3     
  19 C19            9.7556    -1.7027    -0.9447 C.3     
  20 C20           10.9455    -0.8889    -0.4304 C.3     
  21 N21           11.4625    -1.5056     0.7993 N.3     
  22 C22           10.4227    -1.5573     1.8365 C.3     
  23 C23            9.2328    -2.3710     1.3222 C.3     
  24 C24           12.6541    -0.7959     1.2833 C.3     
  25 O25            0.7758    -2.5162    -2.3935 O.2     
  26 N26           -0.5320    -3.4538    -0.7747 N.am    
  27 C27            0.4653    -2.7438     1.1532 C.ar    
  28 C28           -0.5804    -3.4908     0.6160 C.ar    
  29 C29            0.6279    -2.6294     2.5106 C.ar    
  30 C30           -0.2667    -3.2703     3.3753 C.ar    
  31 C31           -1.3202    -4.0229     2.8424 C.ar    
  32 C32           -1.4721    -4.1312     1.4766 C.ar    
  33 F33           -2.1891    -4.6453     3.6686 F       
  34 C34           -0.9818    -5.8417    -2.0671 C.ar    
  35 C35            0.1985    -5.9955    -2.7800 C.ar    
  36 C36           -1.6557    -6.9525    -1.5961 C.ar    
  37 C37           -1.1560    -8.2185    -1.8333 C.ar    
  38 C38            0.0244    -8.3776    -2.5459 C.ar    
  39 C39            0.7019    -7.2650    -3.0197 C.ar    
  40 O40            0.5152    -9.6231    -2.7793 O.3     
  41 O41            0.8605    -4.9028    -3.2432 O.3     
  42 C42           -0.2353   -10.7237    -2.2620 C.3     
  43 C43            2.0691    -5.1359    -3.9692 C.3     
  44 C44            2.6674    -3.7975    -4.4068 C.3     
  45 C45           -0.1055    -3.1575     4.7937 C.1     
  46 N46            0.0224    -3.0681     5.9189 N.1     
  47 O47           -1.1643    -0.7022     0.0148 O.3     
  48 C48           -3.5737    -0.8890     0.0344 C.3     
  49 C49           -2.3732     0.0595     0.0341 C.3     
  50 S50           -1.6183    -4.2284    -1.7557 S.o2    
  51 O51           -2.7995    -4.4048    -0.9857 O.2     
  52 O52           -1.5966    -3.5416    -2.9995 O.2     
  53 H53           -0.9561     1.9087     0.0369 H       
  54 H54            3.3434    -0.4991    -0.0222 H       
  55 H55            3.3077     1.9620     0.0065 H       
  56 H56            1.1609     3.1649     0.0374 H       
  57 H57            2.9222    -3.2557     0.7081 H       
  58 H58            4.5280    -3.3957     1.0314 H       
  59 H59            5.5785    -4.3966    -0.0040 H       
  60 H60            6.2104    -1.6173     1.0920 H       
  61 H61            6.9764    -3.1499     1.5766 H       
  62 H62            7.8109    -3.4533    -0.7483 H       
  63 H63            6.5806    -0.6924    -1.1754 H       
  64 H64            7.6161    -1.5516    -2.3416 H       
  65 H65            5.9884    -3.3794    -2.5099 H       
  66 H66            5.1529    -1.8344    -2.8133 H       
  67 H67           10.0828    -2.7149    -1.1823 H       
  68 H68            9.3524    -1.2307    -1.8406 H       
  69 H69           11.7298    -0.8736    -1.1871 H       
  70 H70           10.6242     0.1309    -0.2185 H       
  71 H71           10.8259    -2.0292     2.7325 H       
  72 H72           10.0955    -0.5451     2.0742 H       
  73 H73            8.4485    -2.3863     2.0789 H       
  74 H74            9.5541    -3.3908     1.1103 H       
  75 H75           12.3980     0.2424     1.4940 H       
  76 H76           13.0161    -1.2728     2.1941 H       
  77 H77           13.4324    -0.8306     0.5210 H       
  78 H78            1.4443    -2.0466     2.9108 H       
  79 H79           -2.2864    -4.7132     1.0709 H       
  80 H80           -2.5743    -6.8307    -1.0413 H       
  81 H81           -1.6840    -9.0850    -1.4635 H       
  82 H82            1.6203    -7.3868    -3.5748 H       
  83 H83            0.2654   -11.6573    -2.5181 H       
  84 H84           -0.3084   -10.6360    -1.1780 H       
  85 H85           -1.2355   -10.7170    -2.6953 H       
  86 H86            2.7805    -5.6607    -3.3315 H       
  87 H87            1.8534    -5.7424    -4.8488 H       
  88 H88            3.5893    -3.9753    -4.9605 H       
  89 H89            1.9561    -3.2726    -5.0444 H       
  90 H90            2.8832    -3.1910    -3.5272 H       
  91 H91           -4.4958    -0.3080     0.0491 H       
  92 H92           -3.5482    -1.5076    -0.8628 H       
  93 H93           -3.5323    -1.5273     0.9170 H       
  94 H94           -2.3986     0.6780     0.9312 H       
  95 H95           -2.4146     0.6977    -0.8486 H       
@<TRIPOS>BOND
   1    1    2 ar
   2    1    6 ar
   3    1   53 1
   4    2    3 ar
   5    2   47 1
   6    3    4 ar
   7    3    7 1
   8    4    5 ar
   9    4   54 1
  10    5    6 ar
  11    5   55 1
  12    6   56 1
  13    7    8 1
  14    7    9 1
  15    7   27 1
  16    8   25 2
  17    8   26 am
  18    9   10 am
  19    9   57 1
  20   10   11 am
  21   10   12 2
  22   11   13 1
  23   11   17 1
  24   13   14 1
  25   13   58 1
  26   13   59 1
  27   14   15 1
  28   14   60 1
  29   14   61 1
  30   15   16 1
  31   15   18 1
  32   15   62 1
  33   16   17 1
  34   16   63 1
  35   16   64 1
  36   17   65 1
  37   17   66 1
  38   18   19 1
  39   18   23 1
  40   19   20 1
  41   19   67 1
  42   19   68 1
  43   20   21 1
  44   20   69 1
  45   20   70 1
  46   21   22 1
  47   21   24 1
  48   22   23 1
  49   22   71 1
  50   22   72 1
  51   23   73 1
  52   23   74 1
  53   24   75 1
  54   24   76 1
  55   24   77 1
  56   26   50 am
  57   26   28 1
  58   27   28 ar
  59   27   29 ar
  60   28   32 ar
  61   29   30 ar
  62   29   78 1
  63   30   31 ar
  64   30   45 1
  65   31   32 ar
  66   31   33 1
  67   32   79 1
  68   34   35 ar
  69   34   36 ar
  70   34   50 1
  71   35   41 1
  72   35   39 ar
  73   36   37 ar
  74   36   80 1
  75   37   38 ar
  76   37   81 1
  77   38   39 ar
  78   38   40 1
  79   39   82 1
  80   40   42 1
  81   41   43 1
  82   42   83 1
  83   42   84 1
  84   42   85 1
  85   43   44 1
  86   43   86 1
  87   43   87 1
  88   44   88 1
  89   44   89 1
  90   44   90 1
  91   45   46 3
  92   47   49 1
  93   48   49 1
  94   48   91 1
  95   48   92 1
  96   48   93 1
  97   49   94 1
  98   49   95 1
  99   50   51 2
 100   50   52 2

#	End of record

