#	Name: ASD01916309
#	Creating user name:	WinNT
#	Creation time:	15. 06. 2019 20:07

#	Modifying user name:	WinNT
#	Modification time:	15. 06. 2019 20:07

#	Program:	/corina/corina34_cracker 3.40 0067  02.08.2006

@<TRIPOS>MOLECULE
ASD01916309
  42   43    0    0    0
SMALL
NO_CHARGES


@<TRIPOS>ATOM
   1 C1            -0.0167     1.3817     0.0096 C.ar    
   2 C2             0.0021    -0.0041     0.0020 C.ar    
   3 C3             1.2064    -0.6809    -0.0126 C.ar    
   4 C4             2.4059     0.0359    -0.0202 C.ar    
   5 C5             2.3775     1.4338    -0.0129 C.ar    
   6 C6             1.1682     2.0963     0.0022 C.ar    
   7 F7            -1.1593    -0.6943     0.0094 F       
   8 C8             3.6585    -0.6580    -0.0349 C.1     
   9 C9             4.6853    -1.2269    -0.0470 C.1     
  10 C10            5.9379    -1.9208    -0.0617 C.ar    
  11 C11            7.1411    -1.1988    -0.0693 C.ar    
  12 N12            8.2901    -1.8379    -0.0829 N.ar    
  13 C13            8.3127    -3.1702    -0.0894 C.ar    
  14 C14            7.1167    -3.8908    -0.0823 C.ar    
  15 N15            5.9626    -3.2541    -0.0627 N.ar    
  16 C16            9.6061    -3.8866    -0.1046 C.2     
  17 O17            9.6278    -5.1019    -0.1106 O.2     
  18 N18           10.7611    -3.1920    -0.1119 N.am    
  19 C19           12.0426    -3.9017    -0.1270 C.3     
  20 C20           13.1165    -3.0023    -0.7423 C.3     
  21 O21           13.3241    -1.8651     0.0979 O.3     
  22 C22           14.4244    -3.7855    -0.8727 C.3     
  23 C23           12.6604    -2.5371    -2.1266 C.3     
  24 C24           12.4410    -4.2656     1.3047 C.3     
  25 H25           -0.9607     1.9063     0.0169 H       
  26 H26            1.2207    -1.7608    -0.0179 H       
  27 H27            3.3010     1.9937    -0.0183 H       
  28 H28            1.1459     3.1760     0.0075 H       
  29 H29            7.1234    -0.1190    -0.0644 H       
  30 H30            7.1373    -4.9706    -0.0884 H       
  31 H31           10.7438    -2.2222    -0.1072 H       
  32 H32           11.9472    -4.8114    -0.7199 H       
  33 H33           13.6151    -2.0856     0.9933 H       
  34 H34           14.2661    -4.6528    -1.5135 H       
  35 H35           15.1895    -3.1447    -1.3110 H       
  36 H36           14.7493    -4.1169     0.1136 H       
  37 H37           11.7287    -1.9791    -2.0337 H       
  38 H38           13.4255    -1.8963    -2.5649 H       
  39 H39           12.5022    -3.4044    -2.7675 H       
  40 H40           12.5364    -3.3560     1.8976 H       
  41 H41           11.6759    -4.9064     1.7430 H       
  42 H42           13.3944    -4.7937     1.2934 H       
@<TRIPOS>BOND
   1    1    2 ar
   2    1    6 ar
   3    1   25 1
   4    2    3 ar
   5    2    7 1
   6    3    4 ar
   7    3   26 1
   8    4    5 ar
   9    4    8 1
  10    5    6 ar
  11    5   27 1
  12    6   28 1
  13    8    9 3
  14    9   10 1
  15   10   11 ar
  16   10   15 ar
  17   11   12 ar
  18   11   29 1
  19   12   13 ar
  20   13   14 ar
  21   13   16 1
  22   14   15 ar
  23   14   30 1
  24   16   17 2
  25   16   18 am
  26   18   19 1
  27   18   31 1
  28   19   20 1
  29   19   24 1
  30   19   32 1
  31   20   21 1
  32   20   22 1
  33   20   23 1
  34   21   33 1
  35   22   34 1
  36   22   35 1
  37   22   36 1
  38   23   37 1
  39   23   38 1
  40   23   39 1
  41   24   40 1
  42   24   41 1
  43   24   42 1

#	End of record

