#	Name: ASD00460013
#	Creating user name:	WinNT
#	Creation time:	15. 06. 2019 18:36

#	Modifying user name:	WinNT
#	Modification time:	15. 06. 2019 18:36

#	Program:	/corina/corina34_cracker 3.40 0067  02.08.2006

@<TRIPOS>MOLECULE
ASD00460013
  74   79    0    0    0
SMALL
NO_CHARGES


@<TRIPOS>ATOM
   1 C1             0.0181     1.3729     0.2858 C.ar    
   2 C2             0.0363    -0.0052     0.2755 C.ar    
   3 C3             1.2074    -0.6865    -0.0127 C.ar    
   4 C4             2.3683     0.0071    -0.2931 C.ar    
   5 C5             2.3683     1.3935    -0.2872 C.ar    
   6 C6             1.1855     2.0869     0.0039 C.ar    
   7 O7             3.5085     2.0762    -0.5622 O.3     
   8 C8             4.6748     1.3022    -0.8496 C.3     
   9 C9             5.8514     2.2384    -1.1323 C.3     
  10 C10            7.1266     1.4135    -1.3171 C.3     
  11 N11            8.2758     2.3159    -1.4694 N.3     
  12 C12            9.5207     1.5571    -1.6494 C.3     
  13 C13           10.6924     2.5288    -1.8041 C.3     
  14 N14           10.7975     3.3621    -0.6038 N.am    
  15 O15            5.5906     2.9853    -2.3224 O.3     
  16 C16            9.7556     0.6654    -0.4285 C.3     
  17 C17            9.4109     0.6869    -2.9030 C.3     
  18 C18            1.2149    -2.1934    -0.0199 C.3     
  19 C19            1.3589    -2.7432     1.4321 C.3     
  20 C20            0.2984    -1.9512     2.2564 C.3     
  21 C21           -1.0632    -2.4946     1.7660 C.3     
  22 C22           -0.6971    -3.5637     0.6916 C.3     
  23 C23           -0.1467    -2.7368    -0.5103 C.3     
  24 C24            0.6387    -4.1305     1.2898 C.3     
  25 C25           -0.5975    -2.7566     3.1996 C.3     
  26 C26           11.5239     3.0721     0.4895 C.2     
  27 C27           11.3867     4.1441     1.4940 C.ar    
  28 C28           10.5364     5.1236     0.9760 C.ar    
  29 C29           10.1324     4.6539    -0.3992 C.3     
  30 C30           11.9296     4.3130     2.7692 C.ar    
  31 C31           11.6221     5.4406     3.5019 C.ar    
  32 C32           10.7781     6.4047     2.9792 C.ar    
  33 C33           10.2359     6.2443     1.7152 C.ar    
  34 O34           12.1971     2.0699     0.6305 O.2     
  35 C35           -1.2950    -2.0057     4.3044 C.2     
  36 O36           -1.1358    -0.8134     4.4186 O.2     
  37 O37           -2.0933    -2.6613     5.1615 O.3     
  38 C38            1.1736     3.5188     0.0123 C.1     
  39 N39            1.1642     4.6548     0.0191 N.1     
  40 H40           -0.8981     1.9000     0.5070 H       
  41 H41           -0.8665    -0.5563     0.4935 H       
  42 H42            3.2774    -0.5313    -0.5169 H       
  43 H43            4.9112     0.6698     0.0062 H       
  44 H44            4.4899     0.6771    -1.7232 H       
  45 H45            5.9801     2.9235    -0.2943 H       
  46 H46            7.2774     0.7773    -0.4450 H       
  47 H47            7.0318     0.7925    -2.2079 H       
  48 H48            8.1312     2.9598    -2.2326 H       
  49 H49           11.6161     1.9658    -1.9377 H       
  50 H50           10.5251     3.1641    -2.6739 H       
  51 H51            5.4652     2.4387    -3.1102 H       
  52 H52            8.9209    -0.0268    -0.3182 H       
  53 H53           10.6793     0.1024    -0.5620 H       
  54 H54            9.8338     1.2854     0.4646 H       
  55 H55            9.2436     1.3222    -3.7728 H       
  56 H56           10.3346     0.1239    -3.0365 H       
  57 H57            8.5762    -0.0054    -2.7927 H       
  58 H58            2.0234    -2.5656    -0.6490 H       
  59 H59            2.3696    -2.7525     1.8401 H       
  60 H60            0.4766    -0.8906     2.4336 H       
  61 H61           -1.9173    -1.8460     1.5714 H       
  62 H62           -1.4769    -4.2875     0.4547 H       
  63 H63           -0.8215    -1.9139    -0.7461 H       
  64 H64           -0.0087    -3.3778    -1.3810 H       
  65 H65            1.1534    -4.7883     0.5896 H       
  66 H66            0.4826    -4.6110     2.2556 H       
  67 H67           -0.2824    -3.7701     3.4479 H       
  68 H68           10.4579     5.3729    -1.1511 H       
  69 H69            9.0513     4.5237    -0.4480 H       
  70 H70           12.5881     3.5627     3.1811 H       
  71 H71           12.0419     5.5715     4.4883 H       
  72 H72           10.5417     7.2848     3.5588 H       
  73 H73            9.5776     6.9985     1.3099 H       
  74 H74           -2.5190    -2.1370     5.8536 H       
@<TRIPOS>BOND
   1    1    2 ar
   2    1    6 ar
   3    1   40 1
   4    2    3 ar
   5    2   41 1
   6    3    4 ar
   7    3   18 1
   8    4    5 ar
   9    4   42 1
  10    5    6 ar
  11    5    7 1
  12    6   38 1
  13    7    8 1
  14    8    9 1
  15    8   43 1
  16    8   44 1
  17    9   10 1
  18    9   15 1
  19    9   45 1
  20   10   11 1
  21   10   46 1
  22   10   47 1
  23   11   12 1
  24   11   48 1
  25   12   13 1
  26   12   16 1
  27   12   17 1
  28   13   14 1
  29   13   49 1
  30   13   50 1
  31   14   26 am
  32   14   29 1
  33   15   51 1
  34   16   52 1
  35   16   53 1
  36   16   54 1
  37   17   55 1
  38   17   56 1
  39   17   57 1
  40   18   19 1
  41   18   23 1
  42   18   58 1
  43   19   20 1
  44   19   24 1
  45   19   59 1
  46   20   21 1
  47   20   25 1
  48   20   60 1
  49   21   22 1
  50   21   25 1
  51   21   61 1
  52   22   23 1
  53   22   24 1
  54   22   62 1
  55   23   63 1
  56   23   64 1
  57   24   65 1
  58   24   66 1
  59   25   35 1
  60   25   67 1
  61   26   27 1
  62   26   34 2
  63   27   28 ar
  64   27   30 ar
  65   28   29 1
  66   28   33 ar
  67   29   68 1
  68   29   69 1
  69   30   31 ar
  70   30   70 1
  71   31   32 ar
  72   31   71 1
  73   32   33 ar
  74   32   72 1
  75   33   73 1
  76   35   36 2
  77   35   37 1
  78   37   74 1
  79   38   39 3

#	End of record

