#	Name: ASD09800066
#	Creating user name:	WinNT
#	Creation time:	15. 06. 2019 21:24

#	Modifying user name:	WinNT
#	Modification time:	15. 06. 2019 21:24

#	Program:	/corina/corina34_cracker 3.40 0067  02.08.2006

@<TRIPOS>MOLECULE
ASD09800066
  46   49    0    0    0
SMALL
NO_CHARGES


@<TRIPOS>ATOM
   1 C1            -0.0670     1.5576     1.9845 C.ar    
   2 C2            -0.1167     0.2301     2.3689 C.ar    
   3 C3             0.4854    -0.1762     3.5450 C.ar    
   4 C4             1.1410     0.7424     4.3442 C.ar    
   5 C5             1.1958     2.0754     3.9665 C.ar    
   6 C6             0.5882     2.4854     2.7795 C.ar    
   7 N7             0.6402     3.8305     2.3918 N.pl3   
   8 N8             1.8583     3.0068     4.7739 N.pl3   
   9 C9            -0.4100     4.3878     1.6909 C.ar    
  10 C10           -2.4631     5.4608     0.3275 C.ar    
  11 C11           -1.2787     6.1961     0.5533 C.ar    
  12 N12           -0.2908     5.6251     1.2319 N.ar    
  13 N13           -1.5062     3.6656     1.4929 N.ar    
  14 C14           -2.5361     4.1565     0.8283 C.ar    
  15 C15           -3.5873     6.0483    -0.4190 C.2     
  16 O16           -3.5448     7.2137    -0.7648 O.2     
  17 N17           -4.6637     5.2950    -0.7193 N.am    
  18 N18           -1.1526     7.4869     0.0815 N.pl3   
  19 C19            0.0717     8.1536     0.1880 C.ar    
  20 C20            0.0999     9.5240     0.4046 C.ar    
  21 C21            1.3169    10.1817     0.5101 C.ar    
  22 C22            2.5026     9.4675     0.3988 C.ar    
  23 C23            2.4716     8.1029     0.1826 C.ar    
  24 C24            1.2618     7.4439     0.0827 C.ar    
  25 N25            1.3495    11.5663     0.7286 N.pl3   
  26 N26            2.4247    12.2630     0.8400 N.2     
  27 C27            2.0945    13.5195     1.0377 C.2     
  28 C28            0.6975    13.5520     1.0408 C.2     
  29 N29            0.3084    12.3130     0.8392 N.2     
  30 H30           -0.5346     1.8707     1.0627 H       
  31 H31           -0.6278    -0.4913     1.7485 H       
  32 H32            0.4433    -1.2140     3.8408 H       
  33 H33            1.6100     0.4216     5.2626 H       
  34 H34            1.4144     4.3703     2.6159 H       
  35 H35            2.2801     2.7203     5.5991 H       
  36 H36            1.8958     3.9390     4.5083 H       
  37 H37           -3.4242     3.5609     0.6771 H       
  38 H38           -4.6976     4.3656    -0.4435 H       
  39 H39           -5.4047     5.6821    -1.2113 H       
  40 H40           -1.9133     7.9316    -0.3239 H       
  41 H41           -0.8235    10.0774     0.4905 H       
  42 H42            3.4501     9.9792     0.4809 H       
  43 H43            3.3952     7.5500     0.0961 H       
  44 H44            1.2408     6.3774    -0.0862 H       
  45 H45            2.7652    14.3554     1.1711 H       
  46 H46            0.0670    14.4182     1.1770 H       
@<TRIPOS>BOND
   1    1    2 ar
   2    1    6 ar
   3    1   30 1
   4    2    3 ar
   5    2   31 1
   6    3    4 ar
   7    3   32 1
   8    4    5 ar
   9    4   33 1
  10    5    6 ar
  11    5    8 1
  12    6    7 1
  13    7    9 1
  14    7   34 1
  15    8   35 1
  16    8   36 1
  17    9   13 ar
  18    9   12 ar
  19   10   11 ar
  20   10   14 ar
  21   10   15 1
  22   11   12 ar
  23   11   18 1
  24   13   14 ar
  25   14   37 1
  26   15   16 2
  27   15   17 am
  28   17   38 1
  29   17   39 1
  30   18   19 1
  31   18   40 1
  32   19   20 ar
  33   19   24 ar
  34   20   21 ar
  35   20   41 1
  36   21   22 ar
  37   21   25 1
  38   22   23 ar
  39   22   42 1
  40   23   24 ar
  41   23   43 1
  42   24   44 1
  43   25   26 1
  44   25   29 1
  45   26   27 2
  46   27   28 1
  47   27   45 1
  48   28   29 2
  49   28   46 1

#	End of record

