#	Name: ASD04590159
#	Creating user name:	WinNT
#	Creation time:	15. 06. 2019 20:50

#	Modifying user name:	WinNT
#	Modification time:	15. 06. 2019 20:50

#	Program:	/corina/corina34_cracker 3.40 0067  02.08.2006

@<TRIPOS>MOLECULE
ASD04590159
  53   55    0    0    0
SMALL
NO_CHARGES


@<TRIPOS>ATOM
   1 N1            -0.0153     1.2802     0.0091 N.pl3   
   2 N2             0.0021    -0.0041     0.0020 N.2     
   3 C3             1.2455    -0.4440    -0.0122 C.2     
   4 C4             2.0903     0.6961    -0.0142 C.2     
   5 C5             1.2523     1.7667    -0.0004 C.2     
   6 C6             1.6765    -1.8547    -0.0239 C.2     
   7 N7             0.7571    -2.8402    -0.0209 N.am    
   8 O8             2.8611    -2.1284    -0.0362 O.2     
   9 N9             3.4930     0.7146    -0.0270 N.am    
  10 C10            4.1514     1.8906    -0.0271 C.2     
  11 C11            1.1851    -4.2412    -0.0325 C.3     
  12 C12            5.6263     1.9101    -0.0406 C.ar    
  13 O13            3.5295     2.9356    -0.0159 O.2     
  14 C14            6.3448     0.7119    -0.0535 C.ar    
  15 C15            6.3150     3.1307    -0.0466 C.ar    
  16 C16            7.7020     3.1371    -0.0598 C.ar    
  17 C17            8.3995     1.9457    -0.0671 C.ar    
  18 C18            7.7224     0.7370    -0.0666 C.ar    
  19 C19           -0.0455    -5.1504    -0.0263 C.3     
  20 C20            0.1887    -6.6569    -0.1550 C.3     
  21 C21           -0.2442    -6.0619     1.1864 C.3     
  22 C22            8.4961    -0.5562    -0.0741 C.3     
  23 C23            9.9958    -0.2533    -0.0813 C.3     
  24 C24            8.1457    -1.3674     1.1750 C.3     
  25 C25            8.1323    -1.3609    -1.3234 C.3     
  26 O26            5.6283     4.3006    -0.0399 O.3     
  27 C27            6.3978     5.5046    -0.0466 C.3     
  28 H28           -0.8184     1.8242     0.0160 H       
  29 H29            1.5405     2.8076     0.0019 H       
  30 H30           -0.1880    -2.6218    -0.0111 H       
  31 H31            3.9890    -0.1189    -0.0359 H       
  32 H32            1.7745    -4.4337    -0.9290 H       
  33 H33            1.7907    -4.4434     0.8509 H       
  34 H34            5.8211    -0.2326    -0.0527 H       
  35 H35            8.2369     4.0753    -0.0648 H       
  36 H36            9.4794     1.9560    -0.0774 H       
  37 H37           -0.9374    -4.7376    -0.4976 H       
  38 H38           -0.5495    -7.2353    -0.7107 H       
  39 H39            1.2193    -7.0003    -0.2441 H       
  40 H40            0.5016    -6.0137     1.9798 H       
  41 H41           -1.2671    -6.2488     1.5133 H       
  42 H42           10.2549     0.3200     0.8088 H       
  43 H43           10.5554    -1.1886    -0.0868 H       
  44 H44           10.2454     0.3246    -0.9712 H       
  45 H45            7.0773    -1.5832     1.1802 H       
  46 H46            8.7053    -2.3028     1.1696 H       
  47 H47            8.4049    -0.7941     2.0651 H       
  48 H48            8.3819    -0.7830    -2.2133 H       
  49 H49            8.6919    -2.2963    -1.3289 H       
  50 H50            7.0639    -1.5768    -1.3183 H       
  51 H51            7.0346     5.5338     0.8376 H       
  52 H52            7.0182     5.5343    -0.9423 H       
  53 H53            5.7276     6.3642    -0.0401 H       
@<TRIPOS>BOND
   1    1    2 1
   2    1    5 1
   3    1   28 1
   4    2    3 2
   5    3    4 1
   6    3    6 1
   7    4    5 2
   8    4    9 1
   9    5   29 1
  10    6    7 am
  11    6    8 2
  12    7   11 1
  13    7   30 1
  14    9   10 am
  15    9   31 1
  16   10   12 1
  17   10   13 2
  18   11   19 1
  19   11   32 1
  20   11   33 1
  21   12   14 ar
  22   12   15 ar
  23   14   18 ar
  24   14   34 1
  25   15   16 ar
  26   15   26 1
  27   16   17 ar
  28   16   35 1
  29   17   18 ar
  30   17   36 1
  31   18   22 1
  32   19   20 1
  33   19   21 1
  34   19   37 1
  35   20   21 1
  36   20   38 1
  37   20   39 1
  38   21   40 1
  39   21   41 1
  40   22   23 1
  41   22   24 1
  42   22   25 1
  43   23   42 1
  44   23   43 1
  45   23   44 1
  46   24   45 1
  47   24   46 1
  48   24   47 1
  49   25   48 1
  50   25   49 1
  51   25   50 1
  52   26   27 1
  53   27   51 1
  54   27   52 1
  55   27   53 1

#	End of record

