#	Name: ASD03091704
#	Creating user name:	WinNT
#	Creation time:	15. 06. 2019 20:31

#	Modifying user name:	WinNT
#	Modification time:	15. 06. 2019 20:31

#	Program:	/corina/corina34_cracker 3.40 0067  02.08.2006

@<TRIPOS>MOLECULE
ASD03091704
  55   58    0    0    0
SMALL
NO_CHARGES


@<TRIPOS>ATOM
   1 C1            -0.0652     1.3762    -0.2017 C.2     
   2 C2             0.0350     0.0523     0.0401 C.2     
   3 N3            -1.1165    -0.5494     0.2450 N.2     
   4 C4            -2.1858     0.1865     0.1910 C.2     
   5 S5            -1.7712     1.8114    -0.1406 S.3     
   6 N6            -3.4748    -0.2773     0.3807 N.3     
   7 C7            -4.4516     0.8139     0.2524 C.3     
   8 C8            -3.6080    -0.9450     1.6837 C.3     
   9 C9            -5.0300    -1.4939     1.8268 C.3     
  10 O10           -5.9665    -0.4248     1.6681 O.3     
  11 C11           -5.8652     0.2474     0.4099 C.3     
  12 C12            1.0571     2.2980    -0.4647 C.ar    
  13 C13            1.0153     3.1954    -1.5402 C.ar    
  14 C14            2.1918     2.3045     0.3576 C.ar    
  15 C15            3.2159     3.1823     0.0754 C.ar    
  16 N16            3.1375     4.0083    -0.9515 N.ar    
  17 C17            2.0853     4.0384    -1.7483 C.ar    
  18 C18            1.3544    -0.6751     0.0726 C.3     
  19 C19            4.4420     3.1999     0.9513 C.3     
  20 N20            1.8270    -0.7677     1.4562 N.am    
  21 C21            2.9952    -1.3818     1.7296 C.2     
  22 C22            3.4706    -1.4750     3.1217 C.2     
  23 O23            3.6570    -1.8589     0.8278 O.2     
  24 C24            2.0563     5.0044    -2.9047 C.3     
  25 C25            4.7063    -2.0909     3.6294 C.2     
  26 C26            2.8722    -1.0030     4.2644 C.2     
  27 O27            3.6820    -1.3285     5.2745 O.3     
  28 N28            4.6725    -1.9177     4.9175 N.2     
  29 C29            5.7819    -2.7770     2.8273 C.3     
  30 C30           -6.8821     1.3894     0.3573 C.3     
  31 H31           -4.2695     1.5585     1.0274 H       
  32 H32           -4.3526     1.2775    -0.7291 H       
  33 H33           -2.8931    -1.7654     1.7470 H       
  34 H34           -3.4124    -0.2286     2.4815 H       
  35 H35           -5.2072    -2.2496     1.0615 H       
  36 H36           -5.1504    -1.9397     2.8141 H       
  37 H37           -6.0667    -0.4576    -0.3967 H       
  38 H38            0.1578     3.2256    -2.1961 H       
  39 H39            2.2625     1.6320     1.1997 H       
  40 H40            1.2268    -1.6776    -0.3357 H       
  41 H41            2.0848    -0.1297    -0.5251 H       
  42 H42            5.1779     2.4971     0.5606 H       
  43 H43            4.8674     4.2035     0.9608 H       
  44 H44            4.1677     2.9120     1.9662 H       
  45 H45            1.2991    -0.3871     2.1755 H       
  46 H46            2.4856     4.5286    -3.7864 H       
  47 H47            1.0256     5.2917    -3.1124 H       
  48 H48            2.6368     5.8916    -2.6516 H       
  49 H49            1.9334    -0.4734     4.3321 H       
  50 H50            6.5324    -2.0462     2.5259 H       
  51 H51            6.2514    -3.5501     3.4356 H       
  52 H52            5.3400    -3.2310     1.9403 H       
  53 H53           -6.6783     2.0946     1.1630 H       
  54 H54           -6.8043     1.9012    -0.6019 H       
  55 H55           -7.8879     0.9858     0.4733 H       
@<TRIPOS>BOND
   1    1    2 2
   2    1   12 1
   3    1    5 1
   4    2    3 1
   5    2   18 1
   6    3    4 2
   7    4    5 1
   8    4    6 1
   9    6    7 1
  10    6    8 1
  11    7   11 1
  12    7   31 1
  13    7   32 1
  14    8    9 1
  15    8   33 1
  16    8   34 1
  17    9   10 1
  18    9   35 1
  19    9   36 1
  20   10   11 1
  21   11   30 1
  22   11   37 1
  23   12   13 ar
  24   12   14 ar
  25   13   17 ar
  26   13   38 1
  27   14   15 ar
  28   14   39 1
  29   15   16 ar
  30   15   19 1
  31   16   17 ar
  32   17   24 1
  33   18   20 1
  34   18   40 1
  35   18   41 1
  36   19   42 1
  37   19   43 1
  38   19   44 1
  39   20   21 am
  40   20   45 1
  41   21   22 1
  42   21   23 2
  43   22   26 2
  44   22   25 1
  45   24   46 1
  46   24   47 1
  47   24   48 1
  48   25   29 1
  49   25   28 2
  50   26   27 1
  51   26   49 1
  52   27   28 1
  53   29   50 1
  54   29   51 1
  55   29   52 1
  56   30   53 1
  57   30   54 1
  58   30   55 1

#	End of record

