#	Name: ASD01910716
#	Creating user name:	WinNT
#	Creation time:	15. 06. 2019 19:56

#	Modifying user name:	WinNT
#	Modification time:	15. 06. 2019 19:56

#	Program:	/corina/corina34_cracker 3.40 0067  02.08.2006

@<TRIPOS>MOLECULE
ASD01910716
  56   59    0    0    0
SMALL
NO_CHARGES


@<TRIPOS>ATOM
   1 C1            12.4819    -1.9048     4.2713 C.ar    
   2 C2            13.1017    -2.0685     3.0398 C.ar    
   3 C3            12.3921    -1.7491     1.8959 C.ar    
   4 C4            11.0893    -1.2774     2.0177 C.ar    
   5 N5            10.5331    -1.1346     3.2110 N.ar    
   6 C6            11.1857    -1.4317     4.3185 C.ar    
   7 N7            10.3648    -0.9527     0.8767 N.3     
   8 C8             9.0193    -0.4771     1.2250 C.3     
   9 C9             8.3208     0.0390    -0.0375 C.3     
  10 N10            8.3616    -1.0181    -1.0593 N.am    
  11 C11            9.6586    -1.6408    -1.3649 C.3     
  12 C12           10.3044    -2.0908    -0.0502 C.3     
  13 C13            7.2404    -1.4055    -1.6989 C.2     
  14 C14            7.3210    -2.3785    -2.8064 C.ar    
  15 O15            6.1624    -0.9538    -1.3639 O.2     
  16 C16            6.3464    -3.3726    -2.9362 C.ar    
  17 C17            6.4169    -4.2834    -3.9683 C.ar    
  18 C18            7.4552    -4.2210    -4.8860 C.ar    
  19 C19            8.4397    -3.2266    -4.7662 C.ar    
  20 C20            8.3661    -2.3027    -3.7266 C.ar    
  21 C21            9.5126    -3.1600    -5.7123 C.1     
  22 C22           10.3923    -3.1053    -6.4879 C.1     
  23 C23           11.4652    -3.0386    -7.4340 C.ar    
  24 O24            7.5198    -5.1206    -5.8991 O.3     
  25 C25           12.4449    -2.0494    -7.3150 C.ar    
  26 C26           13.4755    -1.9904    -8.2292 C.ar    
  27 C27           13.5409    -2.9095    -9.2644 C.ar    
  28 C28           12.5717    -3.8930    -9.3880 C.ar    
  29 C29           11.5398    -3.9662    -8.4768 C.ar    
  30 C30            6.4853    -6.1046    -5.9598 C.3     
  31 F31           14.5531    -2.8466   -10.1570 F       
  32 C32           14.5327    -0.9239    -8.1027 C.3     
  33 H33           13.0069    -2.1492     5.1830 H       
  34 H34           14.1150    -2.4366     2.9762 H       
  35 H35           12.8438    -1.8641     0.9217 H       
  36 H36           10.6999    -1.3025     5.2744 H       
  37 H37            8.4420    -1.2982     1.6502 H       
  38 H38            9.0961     0.3297     1.9539 H       
  39 H39            7.2844     0.2862     0.1925 H       
  40 H40            8.8383     0.9248    -0.4061 H       
  41 H41            9.5066    -2.5042    -2.0126 H       
  42 H42           10.3046    -0.9165    -1.8611 H       
  43 H43           11.3131    -2.4543    -0.2461 H       
  44 H44            9.7092    -2.8894     0.3928 H       
  45 H45            5.5355    -3.4272    -2.2250 H       
  46 H46            5.6610    -5.0490    -4.0626 H       
  47 H47            9.1198    -1.5353    -3.6289 H       
  48 H48           12.3948    -1.3324    -6.5089 H       
  49 H49           12.6278    -4.6062   -10.1971 H       
  50 H50           10.7855    -4.7330    -8.5740 H       
  51 H51            6.4908    -6.6946    -5.0433 H       
  52 H52            5.5198    -5.6105    -6.0681 H       
  53 H53            6.6563    -6.7593    -6.8144 H       
  54 H54           15.3483    -1.2928    -7.4806 H       
  55 H55           14.9154    -0.6725    -9.0919 H       
  56 H56           14.0992    -0.0352    -7.6442 H       
@<TRIPOS>BOND
   1    1    2 ar
   2    1    6 ar
   3    1   33 1
   4    2    3 ar
   5    2   34 1
   6    3    4 ar
   7    3   35 1
   8    4    5 ar
   9    4    7 1
  10    5    6 ar
  11    6   36 1
  12    7    8 1
  13    7   12 1
  14    8    9 1
  15    8   37 1
  16    8   38 1
  17    9   10 1
  18    9   39 1
  19    9   40 1
  20   10   11 1
  21   10   13 am
  22   11   12 1
  23   11   41 1
  24   11   42 1
  25   12   43 1
  26   12   44 1
  27   13   14 1
  28   13   15 2
  29   14   16 ar
  30   14   20 ar
  31   16   17 ar
  32   16   45 1
  33   17   18 ar
  34   17   46 1
  35   18   19 ar
  36   18   24 1
  37   19   20 ar
  38   19   21 1
  39   20   47 1
  40   21   22 3
  41   22   23 1
  42   23   25 ar
  43   23   29 ar
  44   24   30 1
  45   25   26 ar
  46   25   48 1
  47   26   27 ar
  48   26   32 1
  49   27   28 ar
  50   27   31 1
  51   28   29 ar
  52   28   49 1
  53   29   50 1
  54   30   51 1
  55   30   52 1
  56   30   53 1
  57   32   54 1
  58   32   55 1
  59   32   56 1

#	End of record

