#	Name: ASD01208865
#	Creating user name:	WinNT
#	Creation time:	15. 06. 2019 19:10

#	Modifying user name:	WinNT
#	Modification time:	15. 06. 2019 19:10

#	Program:	/corina/corina34_cracker 3.40 0067  02.08.2006

@<TRIPOS>MOLECULE
ASD01208865
  46   48    0    0    0
SMALL
NO_CHARGES


@<TRIPOS>ATOM
   1 C1             4.7405    -7.0630    -0.9513 C.2     
   2 C2             3.5080    -6.2912    -0.7062 C.ar    
   3 C3             2.8498    -5.6655    -1.7690 C.ar    
   4 C4             1.6993    -4.9463    -1.5360 C.ar    
   5 C5             1.1920    -4.8415    -0.2457 C.ar    
   6 C6             1.8439    -5.4619     0.8142 C.ar    
   7 C7             2.9915    -6.1881     0.5888 C.ar    
   8 O8             5.1852    -7.1558    -2.0783 O.2     
   9 O9             5.3765    -7.6608     0.0753 O.3     
  10 O10            0.0581    -4.1314    -0.0202 O.3     
  11 C11           -1.1315    -4.7812    -0.1169 C.ar    
  12 C12           -2.3194    -4.0729    -0.0016 C.ar    
  13 C13           -3.5365    -4.7313    -0.0990 C.ar    
  14 C14           -3.5710    -6.0995    -0.3124 C.ar    
  15 C15           -2.3791    -6.8158    -0.4294 C.ar    
  16 C16           -1.1567    -6.1486    -0.3359 C.ar    
  17 C17           -2.4110    -8.2754    -0.6566 C.2     
  18 O18           -3.4759    -8.8536    -0.7418 O.2     
  19 O19           -1.2593    -8.9649    -0.7692 O.3     
  20 C20           -1.3666   -10.3957    -0.9916 C.3     
  21 O21           -4.6967    -4.0329     0.0155 O.3     
  22 C22           -4.5876    -2.6251     0.2351 C.3     
  23 C23           -5.9659    -2.0240     0.3354 C.ar    
  24 C24           -6.5926    -1.9333     1.5642 C.ar    
  25 C25           -7.8569    -1.3819     1.6562 C.ar    
  26 C26           -8.4943    -0.9209     0.5194 C.ar    
  27 C27           -7.8671    -1.0107    -0.7092 C.ar    
  28 C28           -6.6011    -1.5581    -0.8005 C.ar    
  29 H29            3.2436    -5.7459    -2.7715 H       
  30 H30            1.1902    -4.4626    -2.3565 H       
  31 H31            1.4470    -5.3774     1.8151 H       
  32 H32            3.4946    -6.6737     1.4119 H       
  33 H33            6.1804    -8.1555    -0.1346 H       
  34 H34           -2.2962    -3.0061     0.1648 H       
  35 H35           -4.5191    -6.6113    -0.3878 H       
  36 H36           -0.2319    -6.6983    -0.4303 H       
  37 H37           -0.3686   -10.8281    -1.0635 H       
  38 H38           -1.9019   -10.8536    -0.1597 H       
  39 H39           -1.9099   -10.5796    -1.9185 H       
  40 H40           -4.0435    -2.4431     1.1620 H       
  41 H41           -4.0515    -2.1680    -0.5966 H       
  42 H42           -6.0947    -2.2935     2.4523 H       
  43 H43           -8.3469    -1.3117     2.6161 H       
  44 H44           -9.4823    -0.4908     0.5912 H       
  45 H45           -8.3652    -0.6508    -1.5973 H       
  46 H46           -6.1096    -1.6250    -1.7599 H       
@<TRIPOS>BOND
   1    1    2 1
   2    1    8 2
   3    1    9 1
   4    2    3 ar
   5    2    7 ar
   6    3    4 ar
   7    3   29 1
   8    4    5 ar
   9    4   30 1
  10    5    6 ar
  11    5   10 1
  12    6    7 ar
  13    6   31 1
  14    7   32 1
  15    9   33 1
  16   10   11 1
  17   11   12 ar
  18   11   16 ar
  19   12   13 ar
  20   12   34 1
  21   13   14 ar
  22   13   21 1
  23   14   15 ar
  24   14   35 1
  25   15   16 ar
  26   15   17 1
  27   16   36 1
  28   17   18 2
  29   17   19 1
  30   19   20 1
  31   20   37 1
  32   20   38 1
  33   20   39 1
  34   21   22 1
  35   22   23 1
  36   22   40 1
  37   22   41 1
  38   23   24 ar
  39   23   28 ar
  40   24   25 ar
  41   24   42 1
  42   25   26 ar
  43   25   43 1
  44   26   27 ar
  45   26   44 1
  46   27   28 ar
  47   27   45 1
  48   28   46 1

#	End of record

