#	Name: ASD01200110
#	Creating user name:	WinNT
#	Creation time:	15. 06. 2019 19:08

#	Modifying user name:	WinNT
#	Modification time:	15. 06. 2019 19:08

#	Program:	/corina/corina34_cracker 3.40 0067  02.08.2006

@<TRIPOS>MOLECULE
ASD01200110
  54   58    0    0    0
SMALL
NO_CHARGES


@<TRIPOS>ATOM
   1 C1             0.6427     1.0560     2.5416 C.2     
   2 N2             0.6005    -0.2311     2.3014 N.2     
   3 C3             1.7066    -0.6029     1.6139 C.ar    
   4 C4             2.4842     0.5534     1.4208 C.ar    
   5 N5             1.7890     1.5883     2.0169 N.pl3   
   6 C6             2.1587    -1.8282     1.1128 C.ar    
   7 C7             3.3601    -1.8894     0.4357 C.ar    
   8 C8             4.1236    -0.7400     0.2489 C.ar    
   9 C9             3.6897     0.4733     0.7376 C.ar    
  10 C10           -0.3966     1.8209     3.2661 C.ar    
  11 C11           -1.5273     1.1640     3.7505 C.ar    
  12 C12           -2.4904     1.8932     4.4266 C.ar    
  13 C13           -2.2916     3.2558     4.5965 C.ar    
  14 C14           -1.1458     3.8431     4.0896 C.ar    
  15 N15           -0.2425     3.1260     3.4545 N.ar    
  16 C16            5.4330    -0.8234    -0.4925 C.3     
  17 C17            5.1512     0.4084    -2.6653 C.2     
  18 N18            4.9044     0.0967    -3.9083 N.2     
  19 C19            4.7737    -1.2341    -4.0130 C.2     
  20 C20            4.9461    -1.7673    -2.7885 C.2     
  21 N21            5.1856    -0.7258    -1.9331 N.pl3   
  22 O22            3.8009    -3.0797    -0.0515 O.3     
  23 C23            2.9791    -4.1565     0.0556 C.ar    
  24 C24            2.0601    -4.4319    -0.9469 C.ar    
  25 C25            1.2262    -5.5275    -0.8358 C.ar    
  26 C26            1.3063    -6.3492     0.2734 C.ar    
  27 C27            2.2212    -6.0771     1.2738 C.ar    
  28 C28            3.0614    -4.9860     1.1649 C.ar    
  29 S29            0.2403    -7.7453     0.4125 S.o2    
  30 O30            0.1310    -7.9646     1.8122 O.2     
  31 O31           -0.8966    -7.3970    -0.3655 O.2     
  32 C32            1.1598    -9.0970    -0.3737 C.3     
  33 C33            0.3287   -10.3803    -0.3160 C.3     
  34 H34            2.0621     2.5182     2.0556 H       
  35 H35            1.5704    -2.7226     1.2553 H       
  36 H36            4.2869     1.3608     0.5889 H       
  37 H37           -1.6500     0.1016     3.6000 H       
  38 H38           -3.3768     1.4122     4.8130 H       
  39 H39           -3.0244     3.8526     5.1191 H       
  40 H40           -0.9884     4.9035     4.2203 H       
  41 H41            6.0809    -0.0048    -0.1789 H       
  42 H42            5.9164    -1.7748    -0.2704 H       
  43 H43            5.3067     1.4075    -2.2859 H       
  44 H44            4.5662    -1.7819    -4.9203 H       
  45 H45            4.9033    -2.8152    -2.5308 H       
  46 H46            1.9966    -3.7900    -1.8131 H       
  47 H47            0.5107    -5.7423    -1.6158 H       
  48 H48            2.2816    -6.7203     2.1393 H       
  49 H49            3.7787    -4.7762     1.9446 H       
  50 H50            1.3624    -8.8418    -1.4138 H       
  51 H51            2.1017    -9.2502     0.1530 H       
  52 H52            0.8811   -11.1925    -0.7884 H       
  53 H53            0.1260   -10.6355     0.7242 H       
  54 H54           -0.6133   -10.2271    -0.8426 H       
@<TRIPOS>BOND
   1    1    2 2
   2    1    5 1
   3    1   10 1
   4    2    3 1
   5    3    4 ar
   6    3    6 ar
   7    4    5 1
   8    4    9 ar
   9    5   34 1
  10    6    7 ar
  11    6   35 1
  12    7    8 ar
  13    7   22 1
  14    8    9 ar
  15    8   16 1
  16    9   36 1
  17   10   11 ar
  18   10   15 ar
  19   11   12 ar
  20   11   37 1
  21   12   13 ar
  22   12   38 1
  23   13   14 ar
  24   13   39 1
  25   14   15 ar
  26   14   40 1
  27   16   21 1
  28   16   41 1
  29   16   42 1
  30   17   18 2
  31   17   21 1
  32   17   43 1
  33   18   19 1
  34   19   20 2
  35   19   44 1
  36   20   21 1
  37   20   45 1
  38   22   23 1
  39   23   24 ar
  40   23   28 ar
  41   24   25 ar
  42   24   46 1
  43   25   26 ar
  44   25   47 1
  45   26   27 ar
  46   26   29 1
  47   27   28 ar
  48   27   48 1
  49   28   49 1
  50   29   30 2
  51   29   31 2
  52   29   32 1
  53   32   33 1
  54   32   50 1
  55   32   51 1
  56   33   52 1
  57   33   53 1
  58   33   54 1

#	End of record

