#	Name: ASD09740267
#	Creating user name:	WinNT
#	Creation time:	15. 06. 2019 21:23

#	Modifying user name:	WinNT
#	Modification time:	15. 06. 2019 21:23

#	Program:	/corina/corina34_cracker 3.40 0067  02.08.2006

@<TRIPOS>MOLECULE
ASD09740267
  56   59    0    0    0
SMALL
NO_CHARGES


@<TRIPOS>ATOM
   1 N1             1.4309     1.6499     0.3766 N.2     
   2 O2             2.0721     0.6273     0.4944 O.3     
   3 C3             0.2562     1.3932    -0.1382 C.2     
   4 N4             0.1918     0.0625    -0.3514 N.2     
   5 C5             1.3525    -0.4165     0.0545 C.2     
   6 C6             1.7785    -1.8320     0.0294 C.ar    
   7 C7            -0.8101     2.3838    -0.4334 C.ar    
   8 C8             3.0443    -2.1913     0.4949 C.ar    
   9 C9             3.4355    -3.5140     0.4692 C.ar    
  10 C10            2.5763    -4.4834    -0.0171 C.ar    
  11 C11            1.3204    -4.1338    -0.4804 C.ar    
  12 C12            0.9145    -2.8155    -0.4545 C.ar    
  13 C13           -0.6217     3.7419    -0.1659 C.ar    
  14 C14           -1.6387     4.6291    -0.4560 C.ar    
  15 N15           -2.7750     4.2092    -0.9776 N.ar    
  16 C16           -2.9929     2.9363    -1.2451 C.ar    
  17 C17           -2.0266     1.9835    -0.9913 C.ar    
  18 C18            3.0106    -5.9262    -0.0426 C.3     
  19 N19            4.0661    -6.1052    -1.0490 N.am    
  20 C20            4.7407    -7.4071    -1.1413 C.3     
  21 C21            5.2766    -7.7841     0.2434 C.3     
  22 C22            4.1321    -7.7398     1.2584 C.3     
  23 C23            3.5660    -6.3198     1.3297 C.3     
  24 C24            4.4086    -5.0944    -1.8720 C.2     
  25 O25            3.7705    -4.0604    -1.8626 O.2     
  26 O26            5.4579    -5.2303    -2.7046 O.3     
  27 C27            5.7693    -4.1011    -3.5626 C.3     
  28 C28            6.0845    -2.8771    -2.7004 C.3     
  29 C29            6.9828    -4.4395    -4.4308 C.3     
  30 C30            4.5686    -3.7967    -4.4607 C.3     
  31 H31            3.7162    -1.4355     0.8741 H       
  32 H32            4.4147    -3.7934     0.8291 H       
  33 H33            0.6547    -4.8952    -0.8594 H       
  34 H34           -0.0662    -2.5439    -0.8161 H       
  35 H35            0.3059     4.0925     0.2618 H       
  36 H36           -1.5023     5.6810    -0.2527 H       
  37 H37           -3.9384     2.6358    -1.6719 H       
  38 H38           -2.2117     0.9429    -1.2131 H       
  39 H39            2.1588    -6.5598    -0.2899 H       
  40 H40            4.0310    -8.1634    -1.4767 H       
  41 H41            5.5681    -7.3407    -1.8477 H       
  42 H42            5.6947    -8.7902     0.2102 H       
  43 H43            6.0520    -7.0770     0.5382 H       
  44 H44            3.3461    -8.4290     0.9497 H       
  45 H45            4.5058    -8.0315     2.2400 H       
  46 H46            4.3574    -5.6264     1.6144 H       
  47 H47            2.7665    -6.2836     2.0697 H       
  48 H48            6.9399    -3.0939    -2.0605 H       
  49 H49            6.3182    -2.0294    -3.3445 H       
  50 H50            5.2200    -2.6360    -2.0818 H       
  51 H51            6.7582    -5.3115    -5.0450 H       
  52 H52            7.2165    -3.5918    -5.0749 H       
  53 H53            7.8382    -4.6564    -3.7909 H       
  54 H54            3.7041    -3.5556    -3.8422 H       
  55 H55            4.8023    -2.9490    -5.1048 H       
  56 H56            4.3440    -4.6687    -5.0750 H       
@<TRIPOS>BOND
   1    1    2 1
   2    1    3 2
   3    2    5 1
   4    3    4 1
   5    3    7 1
   6    4    5 2
   7    5    6 1
   8    6    8 ar
   9    6   12 ar
  10    7   13 ar
  11    7   17 ar
  12    8    9 ar
  13    8   31 1
  14    9   10 ar
  15    9   32 1
  16   10   11 ar
  17   10   18 1
  18   11   12 ar
  19   11   33 1
  20   12   34 1
  21   13   14 ar
  22   13   35 1
  23   14   15 ar
  24   14   36 1
  25   15   16 ar
  26   16   17 ar
  27   16   37 1
  28   17   38 1
  29   18   19 1
  30   18   23 1
  31   18   39 1
  32   19   20 1
  33   19   24 am
  34   20   21 1
  35   20   40 1
  36   20   41 1
  37   21   22 1
  38   21   42 1
  39   21   43 1
  40   22   23 1
  41   22   44 1
  42   22   45 1
  43   23   46 1
  44   23   47 1
  45   24   25 2
  46   24   26 1
  47   26   27 1
  48   27   28 1
  49   27   29 1
  50   27   30 1
  51   28   48 1
  52   28   49 1
  53   28   50 1
  54   29   51 1
  55   29   52 1
  56   29   53 1
  57   30   54 1
  58   30   55 1
  59   30   56 1

#	End of record

