#	Name: ASD01900155
#	Creating user name:	WinNT
#	Creation time:	15. 06. 2019 19:51

#	Modifying user name:	WinNT
#	Modification time:	15. 06. 2019 19:51

#	Program:	/corina/corina34_cracker 3.40 0067  02.08.2006

@<TRIPOS>MOLECULE
ASD01900155
  42   44    0    0    0
SMALL
NO_CHARGES


@<TRIPOS>ATOM
   1 C1            -0.0532     1.4389    -0.2366 C.ar    
   2 C2            -1.1818     1.7996    -0.9548 C.ar    
   3 C3            -1.1682     2.9683    -1.7004 C.ar    
   4 C4            -0.0166     3.7392    -1.7001 C.ar    
   5 C5             1.0814     3.3152    -0.9545 C.ar    
   6 N6             1.0269     2.1893    -0.2539 N.ar    
   7 C7             2.3198     4.1279    -0.9437 C.2     
   8 N8             3.3852     3.7230    -0.2243 N.am    
   9 O9             2.3751     5.1598    -1.5834 O.2     
  10 C10            4.5862     4.4389    -0.2890 C.ar    
  11 C11            4.5644     5.8231    -0.3997 C.ar    
  12 C12            5.7499     6.5294    -0.4635 C.ar    
  13 C13            6.9639     5.8544    -0.4170 C.ar    
  14 C14            6.9847     4.4702    -0.3063 C.ar    
  15 C15            5.8000     3.7652    -0.2368 C.ar    
  16 N16            8.1660     6.5698    -0.4821 N.am    
  17 C17            9.2943     5.9559    -0.8900 C.2     
  18 O18            9.2509     4.8103    -1.2945 O.2     
  19 Cl19           5.7233     8.2596    -0.6024 Cl      
  20 C20           10.5847     6.6756    -0.8456 C.ar    
  21 C21           11.7443     6.0662    -1.3284 C.ar    
  22 C22           12.9451     6.7435    -1.2845 C.ar    
  23 C23           13.0021     8.0240    -0.7629 C.ar    
  24 C24           11.8568     8.6334    -0.2825 C.ar    
  25 C25           10.6481     7.9695    -0.3262 C.ar    
  26 C26           11.6843     4.6714    -1.8959 C.3     
  27 H27           -0.0619     0.5314     0.3489 H       
  28 H28           -2.0635     1.1763    -0.9342 H       
  29 H29           -2.0352     3.2708    -2.2689 H       
  30 H30            0.0292     4.6555    -2.2700 H       
  31 H31            3.3197     2.9355     0.3382 H       
  32 H32            3.6208     6.3472    -0.4362 H       
  33 H33            7.9280     3.9455    -0.2705 H       
  34 H34            5.8166     2.6888    -0.1504 H       
  35 H35            8.1865     7.5073    -0.2337 H       
  36 H36           13.8429     6.2733    -1.6577 H       
  37 H37           13.9449     8.5498    -0.7305 H       
  38 H38           11.9082     9.6329     0.1236 H       
  39 H39            9.7539     8.4482     0.0448 H       
  40 H40           11.3614     4.7159    -2.9360 H       
  41 H41           12.6723     4.2142    -1.8414 H       
  42 H42           10.9758     4.0753    -1.3207 H       
@<TRIPOS>BOND
   1    1    2 ar
   2    1    6 ar
   3    1   27 1
   4    2    3 ar
   5    2   28 1
   6    3    4 ar
   7    3   29 1
   8    4    5 ar
   9    4   30 1
  10    5    6 ar
  11    5    7 1
  12    7    8 am
  13    7    9 2
  14    8   10 1
  15    8   31 1
  16   10   11 ar
  17   10   15 ar
  18   11   12 ar
  19   11   32 1
  20   12   13 ar
  21   12   19 1
  22   13   14 ar
  23   13   16 1
  24   14   15 ar
  25   14   33 1
  26   15   34 1
  27   16   17 am
  28   16   35 1
  29   17   18 2
  30   17   20 1
  31   20   21 ar
  32   20   25 ar
  33   21   22 ar
  34   21   26 1
  35   22   23 ar
  36   22   36 1
  37   23   24 ar
  38   23   37 1
  39   24   25 ar
  40   24   38 1
  41   25   39 1
  42   26   40 1
  43   26   41 1
  44   26   42 1

#	End of record

