#	Name: ASD03430189
#	Creating user name:	WinNT
#	Creation time:	15. 06. 2019 20:40

#	Modifying user name:	WinNT
#	Modification time:	15. 06. 2019 20:40

#	Program:	/corina/corina34_cracker 3.40 0067  02.08.2006

@<TRIPOS>MOLECULE
ASD03430189
  61   67    0    0    0
SMALL
NO_CHARGES


@<TRIPOS>ATOM
   1 C1            -0.0366     1.4044     0.0284 C.ar    
   2 C2            -0.0117     0.0270     0.0210 C.ar    
   3 C3             1.1939    -0.6427     0.0191 C.ar    
   4 C4             2.3932     0.0648     0.0338 C.ar    
   5 C5             2.3593     1.4538     0.0303 C.ar    
   6 C6             1.1470     2.1330     0.0242 C.ar    
   7 O7             3.4634    -0.7797     0.0650 O.3     
   8 C8             1.5568    -2.1026    -0.0079 C.3     
   9 C9             3.0486    -2.0882    -0.3715 C.3     
  10 C10            0.4422    -3.8348     1.0282 C.ar    
  11 C11            1.3080    -2.7802     1.3065 C.ar    
  12 C12            0.7495    -2.8728    -1.0132 C.2     
  13 N13            0.1364    -3.8629    -0.3347 N.am    
  14 O14            0.6652    -2.6477    -2.2020 O.2     
  15 C15            1.7446    -2.5542     2.5929 C.ar    
  16 C16            1.3258    -3.3782     3.6225 C.ar    
  17 C17            0.4679    -4.4301     3.3568 C.ar    
  18 C18            0.0273    -4.6604     2.0704 C.ar    
  19 C19           -0.7481    -4.8529    -0.9541 C.3     
  20 C20           -1.1754     2.4049     0.0526 C.3     
  21 C21           -0.4468     3.7105     0.4502 C.3     
  22 O22            0.8991     3.4722     0.0048 O.3     
  23 C23           -2.1658    -4.3422    -0.9339 C.ar    
  24 C24           -2.6428    -3.5923    -1.9943 C.ar    
  25 C25           -3.9394    -3.1214    -1.9820 C.ar    
  26 C26           -4.7708    -3.4035    -0.8967 C.ar    
  27 C27           -4.2833    -4.1610     0.1696 C.ar    
  28 C28           -2.9863    -4.6302     0.1423 C.ar    
  29 C29           -6.1610    -2.9018    -0.8765 C.2     
  30 N30           -6.9612    -3.1759     0.1729 N.am    
  31 O31           -6.5827    -2.2419    -1.8063 O.2     
  32 C32           -8.2378    -2.6096     0.2454 C.ar    
  33 C33           -9.2873    -3.3289     0.8022 C.ar    
  34 C34          -10.5475    -2.7678     0.8734 C.ar    
  35 C35          -10.7661    -1.4910     0.3909 C.ar    
  36 C36           -9.7222    -0.7701    -0.1657 C.ar    
  37 C37           -8.4571    -1.3248    -0.2339 C.ar    
  38 F38           -9.9389     0.4774    -0.6369 F       
  39 H39           -0.9376    -0.5291     0.0169 H       
  40 H40            3.2844     2.0112     0.0332 H       
  41 H41            3.1860    -2.1990    -1.4471 H       
  42 H42            3.5867    -2.8657     0.1707 H       
  43 H43            2.4145    -1.7324     2.7985 H       
  44 H44            1.6682    -3.2007     4.6312 H       
  45 H45            0.1419    -5.0741     4.1602 H       
  46 H46           -0.6426    -5.4836     1.8705 H       
  47 H47           -0.4377    -5.0228    -1.9851 H       
  48 H48           -0.6911    -5.7890    -0.3986 H       
  49 H49           -1.6325     2.4985    -0.9325 H       
  50 H50           -1.9189     2.1305     0.8009 H       
  51 H51           -0.8789     4.5669    -0.0674 H       
  52 H52           -0.4761     3.8556     1.5301 H       
  53 H53           -1.9986    -3.3748    -2.8334 H       
  54 H54           -4.3104    -2.5355    -2.8100 H       
  55 H55           -4.9213    -4.3825     1.0124 H       
  56 H56           -2.6080    -5.2167     0.9664 H       
  57 H57           -6.6516    -3.7659     0.8777 H       
  58 H58           -9.1182    -4.3269     1.1790 H       
  59 H59          -11.3633    -3.3275     1.3065 H       
  60 H60          -11.7525    -1.0549     0.4476 H       
  61 H61           -7.6429    -0.7630    -0.6674 H       
@<TRIPOS>BOND
   1    1    2 ar
   2    1    6 ar
   3    1   20 1
   4    2    3 ar
   5    2   39 1
   6    3    4 ar
   7    3    8 1
   8    4    5 ar
   9    4    7 1
  10    5    6 ar
  11    5   40 1
  12    6   22 1
  13    7    9 1
  14    8    9 1
  15    8   11 1
  16    8   12 1
  17    9   41 1
  18    9   42 1
  19   10   11 ar
  20   10   13 1
  21   10   18 ar
  22   11   15 ar
  23   12   13 am
  24   12   14 2
  25   13   19 1
  26   15   16 ar
  27   15   43 1
  28   16   17 ar
  29   16   44 1
  30   17   18 ar
  31   17   45 1
  32   18   46 1
  33   19   23 1
  34   19   47 1
  35   19   48 1
  36   20   21 1
  37   20   49 1
  38   20   50 1
  39   21   22 1
  40   21   51 1
  41   21   52 1
  42   23   24 ar
  43   23   28 ar
  44   24   25 ar
  45   24   53 1
  46   25   26 ar
  47   25   54 1
  48   26   27 ar
  49   26   29 1
  50   27   28 ar
  51   27   55 1
  52   28   56 1
  53   29   30 am
  54   29   31 2
  55   30   32 1
  56   30   57 1
  57   32   33 ar
  58   32   37 ar
  59   33   34 ar
  60   33   58 1
  61   34   35 ar
  62   34   59 1
  63   35   36 ar
  64   35   60 1
  65   36   37 ar
  66   36   38 1
  67   37   61 1

#	End of record

