#	Name: ASD02030426
#	Creating user name:	WinNT
#	Creation time:	15. 06. 2019 20:15

#	Modifying user name:	WinNT
#	Modification time:	15. 06. 2019 20:15

#	Program:	/corina/corina34_cracker 3.40 0067  02.08.2006

@<TRIPOS>MOLECULE
ASD02030426
  24   25    0    0    0
SMALL
NO_CHARGES


@<TRIPOS>ATOM
   1 C1            -0.0160     1.3872    -0.0743 C.ar    
   2 C2             0.0021    -0.0041     0.0007 C.ar    
   3 C3             1.2217    -0.6585     0.0714 C.ar    
   4 C4             2.3812     0.1012     0.0648 C.ar    
   5 C5             2.2884     1.4818    -0.0118 C.ar    
   6 N6             1.1179     2.0775    -0.0780 N.ar    
   7 C7            -1.3105     2.1013    -0.1566 C.2     
   8 O8            -2.3506     1.4746    -0.1586 O.2     
   9 O9            -1.3344     3.4459    -0.2292 O.3     
  10 C10            3.5462     2.3118    -0.0193 C.3     
  11 C11            4.6634     1.7454     0.8728 C.3     
  12 C12            5.6467     2.1449    -0.2400 C.3     
  13 C13            4.4660     2.0256    -1.2180 C.3     
  14 H14           -0.9212    -0.5645     0.0039 H       
  15 H15            1.2677    -1.7359     0.1307 H       
  16 H16            3.3474    -0.3782     0.1191 H       
  17 H17           -2.2032     3.8674    -0.2814 H       
  18 H18            3.3542     3.3726     0.1419 H       
  19 H19            4.8050     2.3000     1.8004 H       
  20 H20            4.5942     0.6688     1.0285 H       
  21 H21            6.0300     3.1604    -0.1401 H       
  22 H22            6.4328     1.4098    -0.4128 H       
  23 H23            4.3428     1.0256    -1.6339 H       
  24 H24            4.4481     2.8065    -1.9783 H       
@<TRIPOS>BOND
   1    1    2 ar
   2    1    6 ar
   3    1    7 1
   4    2    3 ar
   5    2   14 1
   6    3    4 ar
   7    3   15 1
   8    4    5 ar
   9    4   16 1
  10    5    6 ar
  11    5   10 1
  12    7    8 2
  13    7    9 1
  14    9   17 1
  15   10   11 1
  16   10   13 1
  17   10   18 1
  18   11   12 1
  19   11   19 1
  20   11   20 1
  21   12   13 1
  22   12   21 1
  23   12   22 1
  24   13   23 1
  25   13   24 1

#	End of record

