#	Name: ASD01901384
#	Creating user name:	WinNT
#	Creation time:	15. 06. 2019 19:53

#	Modifying user name:	WinNT
#	Modification time:	15. 06. 2019 19:53

#	Program:	/corina/corina34_cracker 3.40 0067  02.08.2006

@<TRIPOS>MOLECULE
ASD01901384
  37   40    0    0    0
SMALL
NO_CHARGES


@<TRIPOS>ATOM
   1 C1            -0.0169     1.3945     0.0097 C.ar    
   2 C2             1.1785     2.0809     0.0020 C.ar    
   3 N3             2.3305     1.4365    -0.0129 N.ar    
   4 C4             2.3938     0.1170    -0.0206 C.ar    
   5 C5             1.2414    -0.6476    -0.0133 C.ar    
   6 C6             0.0021    -0.0041     0.0020 C.ar    
   7 C7            -1.2605    -0.7829     0.0104 C.2     
   8 N8            -3.2458    -1.4124     1.1225 N.2     
   9 C9            -2.1318    -0.7225     1.1200 C.2     
  10 C10           -1.5997    -1.5651    -1.0586 C.2     
  11 N11           -2.7666    -2.2677    -1.0184 N.pl3   
  12 C12           -3.5835    -2.1870     0.0802 C.2     
  13 C13           -3.3683    -3.1168    -1.9081 C.2     
  14 C14           -4.5221    -3.5305    -1.3431 C.2     
  15 N15           -4.6371    -2.9600    -0.1399 N.2     
  16 C16           -5.5148    -4.4789    -1.9646 C.3     
  17 O17           -5.0478    -4.8791    -3.2545 O.3     
  18 C18           -5.8320    -5.7403    -3.9547 C.ar    
  19 C19           -7.0291    -6.1861    -3.4136 C.ar    
  20 C20           -5.4394    -6.1700    -5.2138 C.ar    
  21 C21           -6.2399    -7.0463    -5.9245 C.ar    
  22 C22           -7.4319    -7.4935    -5.3789 C.ar    
  23 C23           -7.8259    -7.0613    -4.1266 C.ar    
  24 F24            3.5992    -0.4930    -0.0363 F       
  25 F25           -5.8592    -7.4656    -7.1511 F       
  26 H26           -0.9551     1.9293     0.0260 H       
  27 H27            1.1725     3.1609     0.0078 H       
  28 H28            1.2990    -1.7261    -0.0197 H       
  29 H29           -1.8789    -0.1057     1.9698 H       
  30 H30           -0.9530    -1.6248    -1.9215 H       
  31 H31           -2.9910    -3.4016    -2.8792 H       
  32 H32           -5.6246    -5.3577    -1.3292 H       
  33 H33           -6.4790    -3.9808    -2.0657 H       
  34 H34           -7.3380    -5.8495    -2.4350 H       
  35 H35           -4.5100    -5.8207    -5.6388 H       
  36 H36           -8.0565    -8.1773    -5.9346 H       
  37 H37           -8.7577    -7.4081    -3.7048 H       
@<TRIPOS>BOND
   1    1    6 ar
   2    1    2 ar
   3    1   26 1
   4    2    3 ar
   5    2   27 1
   6    3    4 ar
   7    4    5 ar
   8    4   24 1
   9    5    6 ar
  10    5   28 1
  11    6    7 1
  12    7   10 2
  13    7    9 1
  14    8    9 2
  15    8   12 1
  16    9   29 1
  17   10   11 1
  18   10   30 1
  19   11   13 1
  20   11   12 1
  21   12   15 2
  22   13   14 2
  23   13   31 1
  24   14   15 1
  25   14   16 1
  26   16   17 1
  27   16   32 1
  28   16   33 1
  29   17   18 1
  30   18   20 ar
  31   18   19 ar
  32   19   23 ar
  33   19   34 1
  34   20   21 ar
  35   20   35 1
  36   21   22 ar
  37   21   25 1
  38   22   23 ar
  39   22   36 1
  40   23   37 1

#	End of record

