#	Name: ASD04640004
#	Creating user name:	WinNT
#	Creation time:	15. 06. 2019 20:52

#	Modifying user name:	WinNT
#	Modification time:	15. 06. 2019 20:52

#	Program:	/corina/corina34_cracker 3.40 0067  02.08.2006

@<TRIPOS>MOLECULE
ASD04640004
  54   57    0    0    0
SMALL
NO_CHARGES


@<TRIPOS>ATOM
   1 C1            -0.0164     1.3602     0.0095 C.ar    
   2 C2             0.0021    -0.0041     0.0020 C.ar    
   3 C3             1.2072    -0.6953    -0.0132 C.ar    
   4 C4             2.4052    -0.0171    -0.0206 C.ar    
   5 C5             2.4125     1.3751    -0.0131 C.ar    
   6 C6             1.1894     2.0735     0.0018 C.ar    
   7 N7             3.4198     2.3107    -0.0174 N.pl3   
   8 C8             2.8559     3.5717    -0.0054 C.2     
   9 C9             1.5024     3.4544     0.0064 C.2     
  10 C10            3.6018     4.8392    -0.0047 C.2     
  11 O11            3.0024     5.8976     0.0065 O.2     
  12 N12            4.9495     4.8280    -0.0163 N.am    
  13 C13            5.6925     6.0906    -0.0156 C.3     
  14 C14            7.1717     5.8029    -0.0299 C.2     
  15 C15            7.9309     6.3219    -0.9629 C.2     
  16 C16            9.4101     6.0342    -0.9773 C.3     
  17 N17            9.7891     5.4832    -2.2852 N.3     
  18 C18           11.2504     5.4115    -2.4230 C.3     
  19 C19            9.1977     6.2672    -3.3784 C.3     
  20 C20            9.5498     5.6160    -4.7180 C.3     
  21 N21           11.0111     5.5443    -4.8558 N.3     
  22 C22           11.6025     4.7603    -3.7626 C.3     
  23 C23           11.3717     5.0201    -6.1001 C.ar    
  24 C24           10.9614     3.7436    -6.4628 C.ar    
  25 C25           12.1366     5.7769    -6.9794 C.ar    
  26 C26           12.4910     5.2545    -8.2101 C.ar    
  27 C27           12.0842     3.9803    -8.5650 C.ar    
  28 C28           11.3186     3.2279    -7.6933 C.ar    
  29 Cl29          12.6461     7.3756    -6.5341 Cl      
  30 Cl30          13.4460     6.1982    -9.3106 Cl      
  31 H31           -0.9582     1.8888     0.0169 H       
  32 H32           -0.9287    -0.5517     0.0083 H       
  33 H33            1.2041    -1.7753    -0.0190 H       
  34 H34            3.3368    -0.5635    -0.0317 H       
  35 H35            4.3703     2.1171    -0.0268 H       
  36 H36            0.7926     4.2683     0.0166 H       
  37 H37            5.4274     3.9840    -0.0252 H       
  38 H38            5.4263     6.6693    -0.9001 H       
  39 H39            5.4416     6.6593     0.8798 H       
  40 H40            7.6059     5.1689     0.7290 H       
  41 H41            7.4967     6.9559    -1.7218 H       
  42 H42            9.9615     6.9573    -0.7983 H       
  43 H43            9.6474     5.3120    -0.1961 H       
  44 H44           11.6689     6.4173    -2.3865 H       
  45 H45           11.6637     4.8155    -1.6092 H       
  46 H46            8.1144     6.2951    -3.2612 H       
  47 H47            9.5929     7.2827    -3.3527 H       
  48 H48            9.1313     4.6102    -4.7545 H       
  49 H49            9.1365     6.2120    -5.5318 H       
  50 H50           12.6858     4.7324    -3.8798 H       
  51 H51           11.2073     3.7448    -3.7883 H       
  52 H52           10.3637     3.1546    -5.7830 H       
  53 H53           12.3619     3.5742    -9.5264 H       
  54 H54           11.0032     2.2336    -7.9733 H       
@<TRIPOS>BOND
   1    1    2 ar
   2    1    6 ar
   3    1   31 1
   4    2    3 ar
   5    2   32 1
   6    3    4 ar
   7    3   33 1
   8    4    5 ar
   9    4   34 1
  10    5    6 ar
  11    5    7 1
  12    6    9 1
  13    7    8 1
  14    7   35 1
  15    8    9 2
  16    8   10 1
  17    9   36 1
  18   10   11 2
  19   10   12 am
  20   12   13 1
  21   12   37 1
  22   13   14 1
  23   13   38 1
  24   13   39 1
  25   14   15 2
  26   14   40 1
  27   15   16 1
  28   15   41 1
  29   16   17 1
  30   16   42 1
  31   16   43 1
  32   17   18 1
  33   17   19 1
  34   18   22 1
  35   18   44 1
  36   18   45 1
  37   19   20 1
  38   19   46 1
  39   19   47 1
  40   20   21 1
  41   20   48 1
  42   20   49 1
  43   21   22 1
  44   21   23 1
  45   22   50 1
  46   22   51 1
  47   23   24 ar
  48   23   25 ar
  49   24   28 ar
  50   24   52 1
  51   25   26 ar
  52   25   29 1
  53   26   27 ar
  54   26   30 1
  55   27   28 ar
  56   27   53 1
  57   28   54 1

#	End of record

