#	Name: ASD01151008
#	Creating user name:	WinNT
#	Creation time:	15. 06. 2019 19:05

#	Modifying user name:	WinNT
#	Modification time:	15. 06. 2019 19:05

#	Program:	/corina/corina34_cracker 3.40 0067  02.08.2006

@<TRIPOS>MOLECULE
ASD01151008
  26   25    0    0    0
SMALL
NO_CHARGES


@<TRIPOS>ATOM
   1 C1            -0.0181     1.5026     0.0161 C.3     
   2 C2             0.0014    -0.0042     0.0024 C.2     
   3 C3            -0.2266     1.9970     1.4489 C.3     
   4 N4            -1.1616    -0.6998     0.1067 N.pl3   
   5 N5             1.1386    -0.6433    -0.1098 N.2     
   6 C6            -1.1428    -2.1646     0.0934 C.3     
   7 C7            -2.5722    -2.6943     0.2241 C.3     
   8 C8             2.2856     0.0467    -0.3205 C.1     
   9 N9             3.2472     0.6252    -0.4972 N.1     
  10 C10           -3.3811    -2.2887    -1.0096 C.3     
  11 C11           -2.5426    -4.2199     0.3356 C.3     
  12 H12            0.9304     1.8816    -0.3646 H       
  13 H13           -0.8319     1.8612    -0.6141 H       
  14 H14            0.5372     1.5667     2.0965 H       
  15 H15           -0.1526     3.0842     1.4725 H       
  16 H16           -1.2131     1.6923     1.7984 H       
  17 H17           -2.0041    -0.2264     0.1898 H       
  18 H18           -0.7101    -2.5139    -0.8441 H       
  19 H19           -0.5430    -2.5278     0.9279 H       
  20 H20           -3.0353    -2.2737     1.1166 H       
  21 H21           -4.3995    -2.6661    -0.9165 H       
  22 H22           -3.4022    -1.2018    -1.0891 H       
  23 H23           -2.9180    -2.7094    -1.9022 H       
  24 H24           -1.9663    -4.5089     1.2145 H       
  25 H25           -3.5609    -4.5973     0.4287 H       
  26 H26           -2.0794    -4.6406    -0.5570 H       
@<TRIPOS>BOND
   1    1    2 1
   2    1    3 1
   3    1   12 1
   4    1   13 1
   5    2    4 1
   6    2    5 2
   7    3   14 1
   8    3   15 1
   9    3   16 1
  10    4    6 1
  11    4   17 1
  12    5    8 1
  13    6    7 1
  14    6   18 1
  15    6   19 1
  16    7   10 1
  17    7   11 1
  18    7   20 1
  19    8    9 3
  20   10   21 1
  21   10   22 1
  22   10   23 1
  23   11   24 1
  24   11   25 1
  25   11   26 1

#	End of record

