#	Name: ASD03930002
#	Creating user name:	WinNT
#	Creation time:	15. 06. 2019 20:47

#	Modifying user name:	WinNT
#	Modification time:	15. 06. 2019 20:47

#	Program:	/corina/corina34_cracker 3.40 0067  02.08.2006

@<TRIPOS>MOLECULE
ASD03930002
  27   29    0    0    0
SMALL
NO_CHARGES


@<TRIPOS>ATOM
   1 S1            -0.0226     1.8176     0.0120 S.o2    
   2 C2             0.0021    -0.0041     0.0020 C.3     
   3 N3             0.9499    -0.4135    -1.0450 N.pl3   
   4 C4             2.2659     0.0452    -1.0220 C.ar    
   5 C5             2.6293     1.3103    -0.5190 C.ar    
   6 C6             1.6964     2.2256    -0.0022 C.ar    
   7 C7             3.2454    -0.7937    -1.5221 C.ar    
   8 C8             4.5816    -0.4131    -1.5328 C.ar    
   9 C9             4.9634     0.7999    -1.0472 C.ar    
  10 C10            4.0002     1.6833    -0.5279 C.ar    
  11 C11            4.3875     2.9325    -0.0135 C.ar    
  12 C12            3.4511     3.7830     0.4859 C.ar    
  13 C13            2.1035     3.4265     0.4884 C.ar    
  14 O14           -0.5207     2.3225    -1.2193 O.2     
  15 O15           -0.4971     2.3092     1.2580 O.2     
  16 C16            0.4679    -0.5276     1.3621 C.3     
  17 Cl17           6.6383     1.2559    -1.0685 Cl      
  18 H18           -0.9923    -0.3885    -0.2252 H       
  19 H19            0.6579    -1.0061    -1.7552 H       
  20 H20            2.9667    -1.7620    -1.9108 H       
  21 H21            5.3258    -1.0873    -1.9304 H       
  22 H22            5.4294     3.2171    -0.0144 H       
  23 H23            3.7533     4.7408     0.8830 H       
  24 H24            1.3718     4.1141     0.8862 H       
  25 H25           -0.2155    -0.1822     2.1378 H       
  26 H26            0.4797    -1.6175     1.3472 H       
  27 H27            1.4713    -0.1562     1.5701 H       
@<TRIPOS>BOND
   1    1    2 1
   2    1    6 1
   3    1   14 2
   4    1   15 2
   5    2    3 1
   6    2   16 1
   7    2   18 1
   8    3    4 1
   9    3   19 1
  10    4    5 ar
  11    4    7 ar
  12    5    6 ar
  13    5   10 ar
  14    6   13 ar
  15    7    8 ar
  16    7   20 1
  17    8    9 ar
  18    8   21 1
  19    9   10 ar
  20    9   17 1
  21   10   11 ar
  22   11   12 ar
  23   11   22 1
  24   12   13 ar
  25   12   23 1
  26   13   24 1
  27   16   25 1
  28   16   26 1
  29   16   27 1

#	End of record

