#	Name: ASD00170523
#	Creating user name:	WinNT
#	Creation time:	15. 06. 2019 18:32

#	Modifying user name:	WinNT
#	Modification time:	15. 06. 2019 18:32

#	Program:	/corina/corina34_cracker 3.40 0067  02.08.2006

@<TRIPOS>MOLECULE
ASD00170523
  50   53    0    0    0
SMALL
NO_CHARGES


@<TRIPOS>ATOM
   1 C1             0.7802     1.7461     0.0140 C.ar    
   2 N2             0.6335     0.3540    -0.0194 N.3     
   3 C3            -0.1375    -0.1222     1.1375 C.3     
   4 C4            -0.3431    -1.6345     1.0225 C.3     
   5 N5             0.9651    -2.3004     0.9549 N.3     
   6 C6             1.7361    -1.8242    -0.2020 C.3     
   7 C7             1.9418    -0.3119    -0.0870 C.3     
   8 C8             0.8112    -3.7609     0.9199 C.3     
   9 C9             2.1399    -4.3986     0.6053 C.2     
  10 C10            2.4736    -4.8307    -0.6008 C.2     
  11 S11            4.0901    -5.5126    -0.5971 S.3     
  12 C12            4.3010    -5.2004     1.0652 C.2     
  13 C13            3.1828    -4.5950     1.5902 C.2     
  14 C14            3.0574    -4.2012     2.9933 C.2     
  15 O15            3.3683    -3.0760     3.3400 O.2     
  16 C16            2.5530    -5.1694     3.9908 C.ar    
  17 C17            2.5343    -4.8340     5.3459 C.ar    
  18 C18            2.0629    -5.7410     6.2714 C.ar    
  19 C19            1.6085    -6.9828     5.8589 C.ar    
  20 C20            1.6246    -7.3212     4.5159 C.ar    
  21 C21            2.0883    -6.4203     3.5805 C.ar    
  22 Cl22           1.0170    -8.1196     7.0300 Cl      
  23 N23            5.4385    -5.5074     1.7839 N.pl3   
  24 C24            2.0488     2.3121     0.0621 C.ar    
  25 C25            2.1896     3.6879     0.0951 C.ar    
  26 C26            1.0704     4.4997     0.0807 C.ar    
  27 C27           -0.1933     3.9404     0.0328 C.ar    
  28 C28           -0.3422     2.5657    -0.0066 C.ar    
  29 F29            3.1429     1.5197     0.0771 F       
  30 F30           -1.5772     2.0202    -0.0538 F       
  31 H31            0.4071     0.1020     2.0547 H       
  32 H32           -1.1067     0.3760     1.1586 H       
  33 H33           -0.8898    -1.9944     1.8941 H       
  34 H34           -0.9113    -1.8566     0.1192 H       
  35 H35            2.7054    -2.3224    -0.2231 H       
  36 H36            1.1916    -2.0484    -1.1192 H       
  37 H37            2.4885     0.0480    -0.9586 H       
  38 H38            2.5100    -0.0898     0.8163 H       
  39 H39            0.4600    -4.1126     1.8899 H       
  40 H40            0.0873    -4.0316     0.1513 H       
  41 H41            1.8359    -4.7719    -1.4704 H       
  42 H42            2.8887    -3.8662     5.6686 H       
  43 H43            2.0483    -5.4828     7.3200 H       
  44 H44            1.2690    -8.2909     4.2002 H       
  45 H45            2.1001    -6.6851     2.5336 H       
  46 H46            6.1597    -6.0010     1.3630 H       
  47 H47            5.5169    -5.2295     2.7099 H       
  48 H48            3.1749     4.1284     0.1325 H       
  49 H49            1.1835     5.5735     0.1072 H       
  50 H50           -1.0651     4.5778     0.0221 H       
@<TRIPOS>BOND
   1    1    2 1
   2    1   24 ar
   3    1   28 ar
   4    2    3 1
   5    2    7 1
   6    3    4 1
   7    3   31 1
   8    3   32 1
   9    4    5 1
  10    4   33 1
  11    4   34 1
  12    5    6 1
  13    5    8 1
  14    6    7 1
  15    6   35 1
  16    6   36 1
  17    7   37 1
  18    7   38 1
  19    8    9 1
  20    8   39 1
  21    8   40 1
  22    9   10 2
  23    9   13 1
  24   10   11 1
  25   10   41 1
  26   11   12 1
  27   12   13 2
  28   12   23 1
  29   13   14 1
  30   14   15 2
  31   14   16 1
  32   16   17 ar
  33   16   21 ar
  34   17   18 ar
  35   17   42 1
  36   18   19 ar
  37   18   43 1
  38   19   20 ar
  39   19   22 1
  40   20   21 ar
  41   20   44 1
  42   21   45 1
  43   23   46 1
  44   23   47 1
  45   24   25 ar
  46   24   29 1
  47   25   26 ar
  48   25   48 1
  49   26   27 ar
  50   26   49 1
  51   27   28 ar
  52   27   50 1
  53   28   30 1

#	End of record

