#	Name: ASD01680149
#	Creating user name:	WinNT
#	Creation time:	15. 06. 2019 19:22

#	Modifying user name:	WinNT
#	Modification time:	15. 06. 2019 19:22

#	Program:	/corina/corina34_cracker 3.40 0067  02.08.2006

@<TRIPOS>MOLECULE
ASD01680149
  78   81    0    0    0
SMALL
NO_CHARGES


@<TRIPOS>ATOM
   1 N1            -0.6184     2.3730    -1.6860 N.am    
   2 C2            -0.8566     0.9557    -2.0146 C.3     
   3 C3             0.3648     0.2026    -1.4309 C.3     
   4 C4             1.5121     1.2107    -1.7043 C.3     
   5 C5             0.8259     2.5782    -1.5032 C.3     
   6 C6            -1.5670     3.3242    -1.5771 C.2     
   7 O7            -2.7232     3.0626    -1.8442 O.2     
   8 O8            -1.2335     4.5642    -1.1724 O.3     
   9 C9            -2.1482     0.4663    -1.3565 C.3     
  10 N10           -2.1106     0.7676     0.0767 N.pl3   
  11 C11           -3.2192     0.5022     0.8721 C.ar    
  12 C12           -4.3616    -0.0497     0.3007 C.ar    
  13 C13           -5.4573    -0.3086     1.1037 C.ar    
  14 C14           -5.3740    -0.0058     2.4566 C.ar    
  15 C15           -4.2092     0.5404     2.9566 C.ar    
  16 N16           -3.1769     0.7718     2.1676 N.ar    
  17 O17            2.5742     1.0349    -0.7647 O.3     
  18 C18            3.8652     1.3706    -1.2772 C.3     
  19 C19            4.9035     1.1487    -0.2078 C.2     
  20 N20            6.2020     1.4011    -0.4664 N.am    
  21 O21            4.5708     0.7430     0.8857 O.2     
  22 C22            7.2113     1.1854     0.5732 C.3     
  23 C23            8.5936     1.5448     0.0244 C.3     
  24 N24            8.5721     2.9150    -0.4936 N.am    
  25 C25            9.4493     3.2891    -1.4460 C.2     
  26 C26            9.4277     4.6719    -1.9688 C.ar    
  27 C27           10.2981     5.0476    -2.9935 C.ar    
  28 C28           10.2725     6.3392    -3.4770 C.ar    
  29 C29            9.3869     7.2618    -2.9483 C.ar    
  30 C30            8.5220     6.8961    -1.9324 C.ar    
  31 C31            8.5331     5.6057    -1.4440 C.ar    
  32 O32           10.2583     2.4897    -1.8750 O.2     
  33 C33           11.2638     4.0445    -3.5698 C.3     
  34 C34            9.6147     1.4409     1.1279 C.2     
  35 O35           10.2585     2.4117     1.4486 O.2     
  36 O36            9.8090     0.2697     1.7543 O.3     
  37 C37           -2.3067     5.5377    -1.0780 C.3     
  38 C38           -1.7479     6.8578    -0.6130 C.ar    
  39 C39           -1.3013     7.7834    -1.5375 C.ar    
  40 C40           -0.7887     8.9943    -1.1110 C.ar    
  41 C41           -0.7232     9.2798     0.2400 C.ar    
  42 C42           -1.1707     8.3545     1.1644 C.ar    
  43 C43           -1.6872     7.1454     0.7377 C.ar    
  44 H44           -0.9053     0.8197    -3.0950 H       
  45 H45            0.2429     0.0301    -0.3615 H       
  46 H46            0.5346    -0.7354    -1.9595 H       
  47 H47            1.8788     1.1098    -2.7258 H       
  48 H48            1.1954     3.2905    -2.2409 H       
  49 H49            1.0233     2.9476    -0.4969 H       
  50 H50           -3.0012     0.9699    -1.8113 H       
  51 H51           -2.2434    -0.6101    -1.4991 H       
  52 H52           -1.3120     1.1523     0.4706 H       
  53 H53           -4.3922    -0.2725    -0.7557 H       
  54 H54           -6.3578    -0.7362     0.6881 H       
  55 H55           -6.2122    -0.1955     3.1106 H       
  56 H56           -4.1401     0.7773     4.0080 H       
  57 H57            4.0896     0.7404    -2.1378 H       
  58 H58            3.8746     2.4174    -1.5811 H       
  59 H59            6.4681     1.7255    -1.3409 H       
  60 H60            6.9870     1.8156     1.4338 H       
  61 H61            7.2020     0.1386     0.8771 H       
  62 H62            8.8557     0.8566    -0.7792 H       
  63 H63            7.9266     3.5529    -0.1512 H       
  64 H64           10.9453     6.6312    -4.2698 H       
  65 H65            9.3711     8.2719    -3.3302 H       
  66 H66            7.8335     7.6209    -1.5239 H       
  67 H67            7.8544     5.3202    -0.6539 H       
  68 H68           10.7514     3.4309    -4.3106 H       
  69 H69           12.0932     4.5695    -4.0437 H       
  70 H70           11.6455     3.4076    -2.7717 H       
  71 H71           10.4747     0.2521     2.4555 H       
  72 H72           -2.7700     5.6637    -2.0565 H       
  73 H73           -3.0531     5.1877    -0.3649 H       
  74 H74           -1.3524     7.5604    -2.5930 H       
  75 H75           -0.4391     9.7172    -1.8332 H       
  76 H76           -0.3220    10.2255     0.5733 H       
  77 H77           -1.1192     8.5774     2.2199 H       
  78 H78           -2.0403     6.4240     1.4598 H       
@<TRIPOS>BOND
   1    1    2 1
   2    1    5 1
   3    1    6 am
   4    2    3 1
   5    2    9 1
   6    2   44 1
   7    3    4 1
   8    3   45 1
   9    3   46 1
  10    4    5 1
  11    4   17 1
  12    4   47 1
  13    5   48 1
  14    5   49 1
  15    6    7 2
  16    6    8 1
  17    8   37 1
  18    9   10 1
  19    9   50 1
  20    9   51 1
  21   10   11 1
  22   10   52 1
  23   11   12 ar
  24   11   16 ar
  25   12   13 ar
  26   12   53 1
  27   13   14 ar
  28   13   54 1
  29   14   15 ar
  30   14   55 1
  31   15   16 ar
  32   15   56 1
  33   17   18 1
  34   18   19 1
  35   18   57 1
  36   18   58 1
  37   19   20 am
  38   19   21 2
  39   20   22 1
  40   20   59 1
  41   22   23 1
  42   22   60 1
  43   22   61 1
  44   23   24 1
  45   23   34 1
  46   23   62 1
  47   24   25 am
  48   24   63 1
  49   25   26 1
  50   25   32 2
  51   26   27 ar
  52   26   31 ar
  53   27   28 ar
  54   27   33 1
  55   28   29 ar
  56   28   64 1
  57   29   30 ar
  58   29   65 1
  59   30   31 ar
  60   30   66 1
  61   31   67 1
  62   33   68 1
  63   33   69 1
  64   33   70 1
  65   34   35 2
  66   34   36 1
  67   36   71 1
  68   37   38 1
  69   37   72 1
  70   37   73 1
  71   38   39 ar
  72   38   43 ar
  73   39   40 ar
  74   39   74 1
  75   40   41 ar
  76   40   75 1
  77   41   42 ar
  78   41   76 1
  79   42   43 ar
  80   42   77 1
  81   43   78 1

#	End of record

