#	Name: ASD03332009
#	Creating user name:	WinNT
#	Creation time:	15. 06. 2019 20:40

#	Modifying user name:	WinNT
#	Modification time:	15. 06. 2019 20:40

#	Program:	/corina/corina34_cracker 3.40 0067  02.08.2006

@<TRIPOS>MOLECULE
ASD03332009
  57   58    0    0    0
SMALL
NO_CHARGES


@<TRIPOS>ATOM
   1 C1             0.4101     1.7588     1.5566 C.2     
   2 N2             0.4243     0.4680     1.9644 N.pl3   
   3 C3             1.6318    -0.0625     1.6094 C.2     
   4 N4             2.3427     0.8737     1.0219 N.2     
   5 C5             1.6171     2.0115     0.9767 C.2     
   6 C6             2.0528     3.2971     0.4030 C.2     
   7 O7             1.3047     4.2559     0.4212 O.2     
   8 N8             3.2803     3.4104    -0.1418 N.am    
   9 C9             3.7135     4.6885    -0.7121 C.3     
  10 C10            3.2226     4.7946    -2.1574 C.3     
  11 C11            3.8395     3.6685    -2.9894 C.3     
  12 C12            5.2182     4.7661    -0.6857 C.2     
  13 C13            1.6976     4.6748    -2.1881 C.3     
  14 C14            3.6399     6.1465    -2.7398 C.3     
  15 O15            5.8734     3.7673    -0.4756 O.2     
  16 N16            5.8360     5.9454    -0.8955 N.am    
  17 C17            7.2988     6.0076    -0.9446 C.3     
  18 C18           -0.6632    -0.2125     2.6729 C.3     
  19 C19           -1.9878     0.0820     1.9622 C.3     
  20 C20           -2.5909     1.3715     2.5103 C.3     
  21 N21           -1.5434     2.3266     2.8778 N.3     
  22 C22           -0.7425     2.7176     1.7084 C.3     
  23 C23           -2.1154     3.5054     3.5421 C.3     
  24 C24            2.0644    -1.4504     1.8454 C.2     
  25 C25            2.0406    -1.9537     3.0746 C.2     
  26 F26            2.8894    -3.5685     1.1623 F       
  27 C27            2.5340    -2.2996     0.6924 C.3     
  28 F28            1.5043    -2.4216    -0.2467 F       
  29 F29            3.6444    -1.6971     0.0914 F       
  30 H30            3.8770     2.6458    -0.1564 H       
  31 H31            3.2970     5.5077    -0.1259 H       
  32 H32            3.5422     2.7054    -2.5745 H       
  33 H33            3.4898     3.7441    -4.0190 H       
  34 H34            4.9259     3.7538    -2.9675 H       
  35 H35            1.2581     5.4770    -1.5954 H       
  36 H36            1.3479     4.7504    -3.2178 H       
  37 H37            1.4004     3.7117    -1.7732 H       
  38 H38            4.7146     6.2795    -2.6155 H       
  39 H39            3.3901     6.1779    -3.8003 H       
  40 H40            3.1123     6.9451    -2.2184 H       
  41 H41            5.3120     6.7531    -1.0140 H       
  42 H42            7.6130     7.0362    -1.1216 H       
  43 H43            7.7092     5.6604     0.0037 H       
  44 H44            7.6626     5.3724    -1.7522 H       
  45 H45           -0.4812    -1.2871     2.6736 H       
  46 H46           -0.7121     0.1503     3.6996 H       
  47 H47           -1.8088     0.1914     0.8926 H       
  48 H48           -2.6806    -0.7425     2.1306 H       
  49 H49           -3.2318     1.8181     1.7501 H       
  50 H50           -3.1897     1.1404     3.3913 H       
  51 H51           -0.3595     3.7282     1.8504 H       
  52 H52           -1.3641     2.6848     0.8136 H       
  53 H53           -2.6382     3.1948     4.4467 H       
  54 H54           -1.3159     4.1984     3.8043 H       
  55 H55           -2.8165     3.9978     2.8682 H       
  56 H56            2.2960    -2.9901     3.2388 H       
  57 H57            1.7658    -1.3264     3.9098 H       
@<TRIPOS>BOND
   1    1    2 1
   2    1    5 2
   3    1   22 1
   4    2    3 1
   5    2   18 1
   6    3    4 2
   7    3   24 1
   8    4    5 1
   9    5    6 1
  10    6    7 2
  11    6    8 am
  12    8    9 1
  13    8   30 1
  14    9   10 1
  15    9   12 1
  16    9   31 1
  17   10   11 1
  18   10   13 1
  19   10   14 1
  20   11   32 1
  21   11   33 1
  22   11   34 1
  23   12   15 2
  24   12   16 am
  25   13   35 1
  26   13   36 1
  27   13   37 1
  28   14   38 1
  29   14   39 1
  30   14   40 1
  31   16   17 1
  32   16   41 1
  33   17   42 1
  34   17   43 1
  35   17   44 1
  36   18   19 1
  37   18   45 1
  38   18   46 1
  39   19   20 1
  40   19   47 1
  41   19   48 1
  42   20   21 1
  43   20   49 1
  44   20   50 1
  45   21   22 1
  46   21   23 1
  47   22   51 1
  48   22   52 1
  49   23   53 1
  50   23   54 1
  51   23   55 1
  52   24   25 2
  53   24   27 1
  54   25   56 1
  55   25   57 1
  56   26   27 1
  57   27   28 1
  58   27   29 1

#	End of record

