#	Name: ASD01209268
#	Creating user name:	WinNT
#	Creation time:	15. 06. 2019 19:11

#	Modifying user name:	WinNT
#	Modification time:	15. 06. 2019 19:11

#	Program:	/corina/corina34_cracker 3.40 0067  02.08.2006

@<TRIPOS>MOLECULE
ASD01209268
  68   70    0    0    0
SMALL
NO_CHARGES


@<TRIPOS>ATOM
   1 C1            -0.0619     1.4391     0.0318 C.3     
   2 C2            -0.2116    -0.0605     0.0269 C.ar    
   3 C3            -0.8145    -0.6914    -1.0451 C.ar    
   4 C4            -0.9519    -2.0669    -1.0496 C.ar    
   5 C5            -0.4859    -2.8115     0.0178 C.ar    
   6 C6             0.1178    -2.1806     1.0895 C.ar    
   7 C7             0.2590    -0.8055     1.0919 C.ar    
   8 S8            -0.6621    -4.5647     0.0127 S.o2    
   9 O9            -0.6823    -4.9189     1.3887 O.2     
  10 O10           -1.7880    -4.8013    -0.8213 O.2     
  11 C11            0.8543    -5.1696    -0.7781 C.3     
  12 C12            1.3994     1.7977     0.1160 C.2     
  13 O13            2.2295     0.9272     0.2711 O.2     
  14 N14            1.7838     3.0859     0.0191 N.am    
  15 C15            3.1194     3.4272     0.1923 C.2     
  16 C16            4.8809     7.1771     0.0134 C.2     
  17 P17            5.7087     8.7899    -0.0526 P.3     
  18 O18            5.1320     9.6829     0.9772 O.2     
  19 O19            7.2828     8.5969     0.2249 O.3     
  20 C20            8.1924     9.6927     0.3426 C.3     
  21 C21            9.6024     9.1593     0.6040 C.3     
  22 O22            5.4966     9.4428    -1.5089 O.3     
  23 C23            5.9401    10.7593    -1.8437 C.3     
  24 C24            5.5810    11.0637    -3.2995 C.3     
  25 C25           -0.8004     2.0214     1.2386 C.3     
  26 C26           -2.3007     1.7589     1.0937 C.3     
  27 N27            3.5994     4.6288     0.1215 N.2     
  28 C28            4.9102     4.7670     0.3161 C.2     
  29 C29            5.5770     3.6229     0.5650 C.2     
  30 S30            4.4194     2.2946     0.5493 S.3     
  31 C31           -3.0423     2.2275     2.3579 C.3     
  32 C32           -4.0363     3.3177     1.9071 C.3     
  33 C33           -4.2736     3.0183     0.4061 C.3     
  34 C34           -2.8700     2.5808    -0.0812 C.3     
  35 C35            5.5843     6.0802     0.2624 C.2     
  36 H36           -0.4844     1.8494    -0.8854 H       
  37 H37           -1.1785    -0.1097    -1.8791 H       
  38 H38           -1.4236    -2.5598    -1.8868 H       
  39 H39            0.4815    -2.7623     1.9236 H       
  40 H40            0.7307    -0.3126     1.9292 H       
  41 H41            1.7194    -4.8493    -0.1976 H       
  42 H42            0.8305    -6.2584    -0.8241 H       
  43 H43            0.9239    -4.7647    -1.7877 H       
  44 H44            1.1279     3.7747    -0.1715 H       
  45 H45            3.8154     7.1099    -0.1500 H       
  46 H46            8.1878    10.2697    -0.5821 H       
  47 H47            7.8863    10.3316     1.1710 H       
  48 H48           10.2962     9.9952     0.6937 H       
  49 H49            9.6070     8.5824     1.5288 H       
  50 H50            9.9085     8.5204    -0.2244 H       
  51 H51            5.4536    11.4837    -1.1904 H       
  52 H52            7.0206    10.8224    -1.7151 H       
  53 H53            6.0675    10.3393    -3.9527 H       
  54 H54            4.5005    11.0006    -3.4280 H       
  55 H55            5.9193    12.0679    -3.5548 H       
  56 H56           -0.4353     1.5491     2.1506 H       
  57 H57           -0.6227     3.0956     1.2895 H       
  58 H58           -2.4794     0.6965     0.9282 H       
  59 H59            6.6380     3.5355     0.7466 H       
  60 H60           -3.5815     1.3926     2.8055 H       
  61 H61           -2.3333     2.6419     3.0746 H       
  62 H62           -4.9696     3.2371     2.4644 H       
  63 H63           -3.5995     4.3083     2.0341 H       
  64 H64           -4.9946     2.2101     0.2827 H       
  65 H65           -4.6029     3.9147    -0.1193 H       
  66 H66           -2.2448     3.4523    -0.2754 H       
  67 H67           -2.9521     1.9623    -0.9750 H       
  68 H68            6.6497     6.1474     0.4258 H       
@<TRIPOS>BOND
   1    1    2 1
   2    1   12 1
   3    1   25 1
   4    1   36 1
   5    2    3 ar
   6    2    7 ar
   7    3    4 ar
   8    3   37 1
   9    4    5 ar
  10    4   38 1
  11    5    6 ar
  12    5    8 1
  13    6    7 ar
  14    6   39 1
  15    7   40 1
  16    8    9 2
  17    8   10 2
  18    8   11 1
  19   11   41 1
  20   11   42 1
  21   11   43 1
  22   12   13 2
  23   12   14 am
  24   14   15 1
  25   14   44 1
  26   15   27 2
  27   15   30 1
  28   16   17 1
  29   16   35 2
  30   16   45 1
  31   17   18 2
  32   17   19 1
  33   17   22 1
  34   19   20 1
  35   20   21 1
  36   20   46 1
  37   20   47 1
  38   21   48 1
  39   21   49 1
  40   21   50 1
  41   22   23 1
  42   23   24 1
  43   23   51 1
  44   23   52 1
  45   24   53 1
  46   24   54 1
  47   24   55 1
  48   25   26 1
  49   25   56 1
  50   25   57 1
  51   26   31 1
  52   26   34 1
  53   26   58 1
  54   27   28 1
  55   28   29 2
  56   28   35 1
  57   29   30 1
  58   29   59 1
  59   31   32 1
  60   31   60 1
  61   31   61 1
  62   32   33 1
  63   32   62 1
  64   32   63 1
  65   33   34 1
  66   33   64 1
  67   33   65 1
  68   34   66 1
  69   34   67 1
  70   35   68 1

#	End of record

