#	Name: ASD06610006
#	Creating user name:	WinNT
#	Creation time:	15. 06. 2019 21:07

#	Modifying user name:	WinNT
#	Modification time:	15. 06. 2019 21:07

#	Program:	/corina/corina34_cracker 3.40 0067  02.08.2006

@<TRIPOS>MOLECULE
ASD06610006
 342  343    0    0    0
SMALL
NO_CHARGES


@<TRIPOS>ATOM
   1 C1            -0.6241    -3.5543    -7.9032 C.2     
   2 O2            -0.5403    -4.5804    -8.5443 O.2     
   3 N3             1.7421    -3.8392    -7.4462 N.am    
   4 C4             0.6210    -2.8999    -7.3624 C.3     
   5 C5             0.9395    -1.6507    -8.1864 C.3     
   6 C6             2.1884    -0.9715    -7.6208 C.3     
   7 O7             1.1744    -2.0238    -9.5456 O.3     
   8 C8            -4.0905    -2.5150    -8.4203 C.2     
   9 O9            -3.9408    -1.4379    -7.8835 O.2     
  10 N10           -1.8304    -2.9964    -7.6792 N.am    
  11 C11           -3.0304    -3.5777    -8.2859 C.3     
  12 C12           -3.5528    -4.7099    -7.3993 C.3     
  13 C13           -2.5346    -5.8518    -7.3775 C.3     
  14 C14           -3.7640    -4.1877    -5.9768 C.3     
  15 C15           -7.5864    -2.4532    -9.4871 C.2     
  16 O16           -7.6180    -3.6555    -9.6438 O.2     
  17 N17           -5.2049    -2.7617    -9.1371 N.am    
  18 C18           -6.2789    -1.7666    -9.1871 C.3     
  19 C19           -5.9761    -0.7442   -10.2844 C.3     
  20 C20           -4.7336     0.0280    -9.9225 C.ar    
  21 C21           -3.4934    -0.4290   -10.3273 C.ar    
  22 C22           -2.3537     0.2793    -9.9954 C.ar    
  23 C23           -2.4542     1.4449    -9.2589 C.ar    
  24 C24           -3.6945     1.9023    -8.8549 C.ar    
  25 C25           -4.8346     1.1963    -9.1905 C.ar    
  26 C26          -10.9377    -1.4184   -10.5172 C.2     
  27 O27          -10.5849    -0.2747   -10.7133 O.2     
  28 N28           -8.7206    -1.7313    -9.5814 N.am    
  29 C29           -9.9916    -2.3988    -9.8731 C.3     
  30 C30          -10.6048    -2.9194    -8.5716 C.3     
  31 C31           -9.7031    -4.0057    -7.9818 C.3     
  32 C32          -10.3163    -4.5262    -6.6802 C.3     
  33 N33           -9.4529    -5.5663    -6.1155 N.pl3   
  34 C34           -9.8020    -6.1852    -4.9385 C.2     
  35 N35          -10.9011    -5.8465    -4.3251 N.2     
  36 N36           -8.9918    -7.1613    -4.4084 N.pl3   
  37 C37          -14.5165    -1.2946   -11.2519 C.2     
  38 O38          -14.7391    -2.3017   -10.6138 O.2     
  39 N39          -12.1757    -1.8126   -10.8754 N.am    
  40 C40          -13.0954    -0.8595   -11.5015 C.3     
  41 C41          -12.8335    -0.8127   -13.0082 C.3     
  42 C42          -17.8132    -0.4356   -12.5772 C.2     
  43 O43          -17.3413     0.2442   -13.4638 O.2     
  44 N44          -15.5400    -0.5647   -11.7378 N.am    
  45 C45          -16.9214    -0.9877   -11.4951 C.3     
  46 C46          -17.3844    -0.4618   -10.1350 C.3     
  47 O47          -17.4262     0.9663   -10.1656 O.3     
  48 C48          -21.4114    -0.0442   -13.0905 C.2     
  49 O49          -21.6664    -0.3767   -11.9524 O.2     
  50 N50          -19.1352    -0.6974   -12.5598 N.am    
  51 C51          -20.0022    -0.1607   -13.6117 C.3     
  52 C52          -19.9810    -1.1005   -14.8189 C.3     
  53 C53          -18.5759    -1.1218   -15.4240 C.3     
  54 C54          -18.5548    -2.0616   -16.6312 C.3     
  55 N55          -17.2094    -2.0820   -17.2107 N.pl3   
  56 C56          -16.9472    -2.8614   -18.3124 C.2     
  57 N57          -15.7502    -2.8796   -18.8280 N.2     
  58 N58          -17.9476    -3.6217   -18.8704 N.pl3   
  59 C59          -24.7265     0.4888   -14.5358 C.2     
  60 O60          -24.3130     0.3676   -15.6695 O.2     
  61 N61          -22.3882     0.4295   -13.8891 N.am    
  62 C62          -23.7581     0.5428   -13.3824 C.3     
  63 C63          -23.9199     1.8722   -12.6425 C.3     
  64 C64          -23.0272     1.8763   -11.4000 C.3     
  65 C65          -23.1865     3.1857   -10.6712 C.2     
  66 O66          -23.9371     4.0291   -11.1014 O.2     
  67 O67          -22.4946     3.4150    -9.5441 O.3     
  68 C68          -28.2709     1.2239   -15.0455 C.2     
  69 O69          -28.3840     1.7189   -13.9440 O.2     
  70 N70          -26.0520     0.5752   -14.3076 N.am    
  71 C71          -26.9933     0.5226   -15.4289 C.3     
  72 C72          -27.2962    -0.9372   -15.7726 C.3     
  73 C73          -26.0228    -1.6162   -16.2809 C.3     
  74 C74          -26.3257    -3.0760   -16.6246 C.3     
  75 C75          -25.0524    -3.7550   -17.1329 C.3     
  76 N76          -25.3432    -5.1566   -17.4629 N.3     
  77 C77          -31.6683     1.4384   -16.3775 C.2     
  78 O78          -31.4626     0.5668   -17.1953 O.2     
  79 N79          -29.2878     1.3011   -15.9266 N.am    
  80 C80          -30.5298     1.9829   -15.5539 C.3     
  81 C81          -30.3852     3.4839   -15.8128 C.3     
  82 C82          -29.3131     4.0603   -14.8859 C.3     
  83 C83          -29.1685     5.5613   -15.1448 C.3     
  84 N84          -28.1420     6.1133   -14.2572 N.pl3   
  85 C85          -27.8359     7.4526   -14.3095 C.2     
  86 N86          -26.9226     7.9437   -13.5198 N.2     
  87 N87          -28.4931     8.2739   -15.1948 N.pl3   
  88 C88          -35.1121     2.4270   -17.1032 C.2     
  89 O89          -34.9776     3.5017   -16.5574 O.2     
  90 N90          -32.9152     1.9202   -16.2053 N.am    
  91 C91          -34.0220     1.3909   -17.0060 C.3     
  92 C92          -34.5755     0.1294   -16.3402 C.3     
  93 C93          -33.5065    -0.9652   -16.3537 C.3     
  94 C94          -34.0599    -2.2267   -15.6880 C.3     
  95 N95          -33.0364    -3.2748   -15.7009 N.pl3   
  96 C96          -33.3070    -4.5067   -15.1538 C.2     
  97 N97          -34.4742    -4.7421   -14.6236 N.2     
  98 N98          -32.3465    -5.4902   -15.1659 N.pl3   
  99 C99          -38.6160     2.4848   -18.1434 C.2     
 100 O100         -38.6667     1.2765   -18.2352 O.2     
 101 N101         -36.2363     2.1594   -17.7967 N.am    
 102 C102         -37.2959     3.1666   -17.8912 C.3     
 103 C103         -36.9880     4.1242   -19.0440 C.3     
 104 O104         -37.0334     3.4104   -20.2812 O.3     
 105 C105         -41.9607     3.5138   -19.2002 C.2     
 106 O106         -41.5930     4.6399   -19.4601 O.2     
 107 N107         -39.7402     3.2178   -18.2670 N.am    
 108 C108         -41.0235     2.5550   -18.5123 C.3     
 109 C109         -41.6327     2.1141   -17.1798 C.3     
 110 C110         -44.8703     4.8007   -18.9791 C.2     
 111 O111         -44.6141     4.5344   -17.8239 O.2     
 112 N112         -43.2076     3.1200   -19.5267 N.am    
 113 C113         -44.1549     4.0827   -20.0943 C.3     
 114 C114         -45.1753     3.3432   -20.9619 C.3     
 115 C115         -44.4798     2.7497   -22.1599 C.2     
 116 O116         -43.2791     2.8343   -22.2647 O.2     
 117 O117         -45.1942     2.1270   -23.1105 O.3     
 118 C118         -47.8383     6.8274   -18.5390 C.2     
 119 O119         -48.2843     6.4896   -19.6151 O.2     
 120 N120         -45.7948     5.7386   -19.2654 N.am    
 121 C121         -46.4063     6.5180   -18.1861 C.3     
 122 C122         -45.6331     7.8250   -17.9995 C.3     
 123 C123         -45.5302     8.5527   -19.3415 C.3     
 124 C124         -46.9209     9.0189   -19.7767 C.3     
 125 C125         -44.2283     7.5165   -17.4776 C.3     
 126 C126         -50.5502     8.8830   -17.2034 C.2     
 127 O127         -49.7961     9.5171   -16.4962 O.2     
 128 N128         -48.6235     7.4795   -17.6588 N.am    
 129 C129         -50.0455     7.6757   -17.9510 C.3     
 130 C130         -50.8317     6.4387   -17.5121 C.3     
 131 C131         -50.4129     5.2553   -18.3459 C.ar    
 132 C132         -49.3667     4.4528   -17.9307 C.ar    
 133 C133         -48.9825     3.3673   -18.6955 C.ar    
 134 C134         -49.6447     3.0841   -19.8754 C.ar    
 135 C135         -50.6915     3.8861   -20.2902 C.ar    
 136 C136         -51.0785     4.9690   -19.5231 C.ar    
 137 C137         -52.7249    10.0283   -15.1968 C.2     
 138 O138         -52.6086     8.8785   -14.8442 O.2     
 139 N139         -51.8394     9.2580   -17.3208 N.am    
 140 C140         -52.3299    10.4316   -16.5941 C.3     
 141 C141         -53.5457    11.0101   -17.3208 C.3     
 142 C142         -53.9818    12.3057   -16.6337 C.3     
 143 C143         -55.1172    12.9492   -17.4321 C.3     
 144 C144         -54.6934     9.9993   -17.2790 C.3     
 145 O145         -53.2059    10.9465   -14.3439 O.3     
 146 C146           2.7912    -3.7126    -6.6096 C.2     
 147 O147           2.8071    -2.8211    -5.7875 O.2     
 148 C148          19.4873    -9.0017     0.0579 C.3     
 149 C149          18.3164    -8.0207     0.1454 C.3     
 150 C150          17.2669    -8.3841    -0.9069 C.3     
 151 C151          16.0960    -7.4032    -0.8194 C.3     
 152 C152          15.0465    -7.7666    -1.8717 C.3     
 153 C153          13.8756    -6.7856    -1.7843 C.3     
 154 C154          12.8261    -7.1490    -2.8366 C.3     
 155 C155          11.6552    -6.1681    -2.7491 C.3     
 156 C156          10.6057    -6.5315    -3.8014 C.3     
 157 C157           9.4348    -5.5505    -3.7139 C.3     
 158 C158           8.3853    -5.9139    -4.7662 C.3     
 159 C159           7.2144    -4.9330    -4.6787 C.3     
 160 C160           6.1649    -5.2964    -5.7310 C.3     
 161 C161           4.9940    -4.3154    -5.6435 C.3     
 162 C162           3.9445    -4.6788    -6.6958 C.3     
 163 H163           1.7294    -4.5522    -8.1037 H       
 164 H164           0.4604    -2.6177    -6.3219 H       
 165 H165           0.0976    -0.9600    -8.1394 H       
 166 H166           3.0536    -1.6166    -7.7737 H       
 167 H167           2.3485    -0.0220    -8.1315 H       
 168 H168           2.0530    -0.7921    -6.5542 H       
 169 H169           0.4229    -2.4609    -9.9690 H       
 170 H170          -1.9039    -2.2099    -7.1162 H       
 171 H171          -2.7844    -3.9722    -9.2718 H       
 172 H172          -4.4998    -5.0751    -7.7966 H       
 173 H173          -1.5876    -5.4866    -6.9802 H       
 174 H174          -2.9068    -6.6584    -6.7458 H       
 175 H175          -2.3842    -6.2238    -8.3909 H       
 176 H176          -4.5550    -3.4377    -5.9787 H       
 177 H177          -4.0482    -5.0138    -5.3249 H       
 178 H178          -2.8393    -3.7396    -5.6132 H       
 179 H179          -5.2958    -3.5981    -9.6198 H       
 180 H180          -6.3479    -1.2579    -8.2255 H       
 181 H181          -5.8193    -1.2623   -11.2304 H       
 182 H182          -6.8160    -0.0563   -10.3817 H       
 183 H183          -3.4149    -1.3396   -10.9027 H       
 184 H184          -1.3847    -0.0780   -10.3111 H       
 185 H185          -1.5637     1.9979    -8.9990 H       
 186 H186          -3.7731     2.8128    -8.2792 H       
 187 H187          -5.8039     1.5557    -8.8780 H       
 188 H188          -8.6953    -0.7698    -9.4561 H       
 189 H189          -9.8162    -3.2338   -10.5515 H       
 190 H190         -10.6980    -2.0988    -7.8602 H       
 191 H191         -11.5907    -3.3369    -8.7759 H       
 192 H192          -9.6098    -4.8262    -8.6931 H       
 193 H193          -8.7172    -3.5881    -7.7774 H       
 194 H194         -10.4095    -3.7056    -5.9689 H       
 195 H195         -11.3022    -4.9437    -6.8846 H       
 196 H196          -8.6350    -5.8184    -6.5719 H       
 197 H197         -11.1473    -6.2831    -3.4946 H       
 198 H198          -8.1739    -7.4134    -4.8649 H       
 199 H199          -9.2381    -7.5979    -3.5780 H       
 200 H200         -12.4579    -2.7273   -10.7186 H       
 201 H201         -12.9384     0.1310   -11.0745 H       
 202 H202         -13.5178    -0.1036   -13.4741 H       
 203 H203         -11.8057    -0.4980   -13.1887 H       
 204 H204         -12.9905    -1.8032   -13.4352 H       
 205 H205         -15.3619     0.2408   -12.2481 H       
 206 H206         -16.9744    -2.0764   -11.5009 H       
 207 H207         -18.3790    -0.8497    -9.9148 H       
 208 H208         -16.6879    -0.7885    -9.3629 H       
 209 H209         -17.7121     1.3693    -9.3343 H       
 210 H210         -19.5126    -1.2411   -11.8507 H       
 211 H211         -19.6431     0.8238   -13.9114 H       
 212 H212         -20.2550    -2.1065   -14.5010 H       
 213 H213         -20.6929    -0.7489   -15.5656 H       
 214 H214         -18.3019    -0.1158   -15.7419 H       
 215 H215         -17.8640    -1.4734   -14.6773 H       
 216 H216         -18.8288    -3.0676   -16.3133 H       
 217 H217         -19.2667    -1.7100   -17.3779 H       
 218 H218         -16.5036    -1.5456   -16.8170 H       
 219 H219         -15.5652    -3.4295   -19.6053 H       
 220 H220         -18.8384    -3.6082   -18.4868 H       
 221 H221         -17.7626    -4.1716   -19.6478 H       
 222 H222         -22.1843     0.6955   -14.7993 H       
 223 H223         -23.9617    -0.2809   -12.6982 H       
 224 H224         -23.6307     2.6917   -13.3004 H       
 225 H225         -24.9604     1.9968   -12.3426 H       
 226 H226         -23.3164     1.0568   -10.7421 H       
 227 H227         -21.9866     1.7516   -11.6998 H       
 228 H228         -22.6299     4.2695    -9.1121 H       
 229 H229         -26.3826     0.6721   -13.4008 H       
 230 H230         -26.5538     1.0163   -16.2956 H       
 231 H231         -27.6525    -1.4538   -14.8814 H       
 232 H232         -28.0628    -0.9767   -16.5464 H       
 233 H233         -25.6665    -1.0995   -17.1721 H       
 234 H234         -25.2562    -1.5766   -15.5070 H       
 235 H235         -26.6820    -3.5927   -15.7334 H       
 236 H236         -27.0923    -3.1156   -17.3984 H       
 237 H237         -24.6960    -3.2384   -18.0241 H       
 238 H238         -24.2858    -3.7155   -16.3591 H       
 239 H239         -26.0961    -5.2220   -18.1314 H       
 240 H240         -24.5173    -5.6273   -17.8013 H       
 241 H241         -29.1974     0.9053   -16.8075 H       
 242 H242         -30.7334     1.8146   -14.4964 H       
 243 H243         -30.0943     3.6472   -16.8505 H       
 244 H244         -31.3368     3.9792   -15.6200 H       
 245 H245         -29.6040     3.8970   -13.8482 H       
 246 H246         -28.3615     3.5650   -15.0787 H       
 247 H247         -28.8776     5.7246   -16.1825 H       
 248 H248         -30.1201     6.0566   -14.9520 H       
 249 H249         -27.6783     5.5339   -13.6327 H       
 250 H250         -26.7066     8.8886   -13.5567 H       
 251 H251         -29.1728     7.9084   -15.7825 H       
 252 H252         -28.2772     9.2188   -15.2317 H       
 253 H253         -33.0798     2.6173   -15.5512 H       
 254 H254         -33.6629     1.1465   -18.0057 H       
 255 H255         -34.8526     0.3539   -15.3102 H       
 256 H256         -35.4541    -0.2140   -16.8863 H       
 257 H257         -33.2294    -1.1897   -17.3837 H       
 258 H258         -32.6279    -0.6218   -15.8077 H       
 259 H259         -34.3371    -2.0022   -14.6580 H       
 260 H260         -34.9385    -2.5701   -16.2341 H       
 261 H261         -32.1678    -3.0996   -16.0955 H       
 262 H262         -34.6652    -5.6112   -14.2375 H       
 263 H263         -31.4779    -5.3150   -15.5605 H       
 264 H264         -32.5375    -6.3594   -14.7799 H       
 265 H265         -36.3438     1.2998   -18.2332 H       
 266 H266         -37.3489     3.7269   -16.9577 H       
 267 H267         -37.7277     4.9246   -19.0590 H       
 268 H268         -35.9942     4.5504   -18.9068 H       
 269 H269         -36.8474     3.9564   -21.0573 H       
 270 H270         -39.6997     4.1841   -18.1936 H       
 271 H271         -40.8665     1.6825   -19.1464 H       
 272 H272         -42.5874     1.6210   -17.3623 H       
 273 H273         -40.9548     1.4206   -16.6822 H       
 274 H274         -41.7897     2.9866   -16.5457 H       
 275 H275         -43.4778     2.1991   -19.3859 H       
 276 H276         -43.6153     4.8064   -20.7051 H       
 277 H277         -45.6385     2.5469   -20.3793 H       
 278 H278         -45.9422     4.0419   -21.2963 H       
 279 H279         -44.7039     1.7623   -23.8599 H       
 280 H280         -46.0553     5.8977   -20.1861 H       
 281 H281         -46.3763     5.9428   -17.2606 H       
 282 H282         -46.1563     8.4575   -17.2824 H       
 283 H283         -44.8736     9.4164   -19.2370 H       
 284 H284         -45.1228     7.8752   -20.0919 H       
 285 H285         -46.8243     9.7512   -20.5783 H       
 286 H286         -47.4958     8.1641   -20.1329 H       
 287 H287         -47.4335     9.4736   -18.9290 H       
 288 H288         -43.6685     6.9745   -18.2398 H       
 289 H289         -43.7146     8.4490   -17.2439 H       
 290 H290         -44.3010     6.9063   -16.5774 H       
 291 H291         -48.2469     7.8190   -16.8318 H       
 292 H292         -50.1786     7.8296   -19.0219 H       
 293 H293         -50.6283     6.2329   -16.4612 H       
 294 H294         -51.8982     6.6191   -17.6472 H       
 295 H295         -48.8494     4.6741   -17.0088 H       
 296 H296         -48.1647     2.7408   -18.3714 H       
 297 H297         -49.3441     2.2365   -20.4733 H       
 298 H298         -51.2086     3.6650   -21.2122 H       
 299 H299         -51.8987     5.5934   -19.8453 H       
 300 H300         -52.4424     8.7508   -17.8865 H       
 301 H301         -51.5431    11.1844   -16.5462 H       
 302 H302         -53.2834    11.2194   -18.3579 H       
 303 H303         -54.3282    12.0828   -15.6245 H       
 304 H304         -53.1372    12.9930   -16.5844 H       
 305 H305         -55.9618    12.2619   -17.4813 H       
 306 H306         -55.4279    13.8722   -16.9426 H       
 307 H307         -54.7708    13.1720   -18.4413 H       
 308 H308         -54.9557     9.7900   -16.2420 H       
 309 H309         -55.5596    10.4114   -17.7968 H       
 310 H310         -54.3827     9.0763   -17.7686 H       
 311 H311         -53.4457    10.6403   -13.4586 H       
 312 H312          19.1271   -10.0144     0.2386 H       
 313 H313          19.9340    -8.9467    -0.9349 H       
 314 H314          20.2350    -8.7428     0.8076 H       
 315 H315          17.8697    -8.0757     1.1381 H       
 316 H316          18.6766    -7.0080    -0.0354 H       
 317 H317          17.7136    -8.3291    -1.8997 H       
 318 H318          16.9067    -9.3969    -0.7262 H       
 319 H319          15.6493    -7.4582     0.1733 H       
 320 H320          16.4562    -6.3904    -1.0002 H       
 321 H321          15.4932    -7.7116    -2.8645 H       
 322 H322          14.6863    -8.7793    -1.6910 H       
 323 H323          13.4289    -6.8406    -0.7915 H       
 324 H324          14.2358    -5.7729    -1.9650 H       
 325 H325          13.2728    -7.0940    -3.8293 H       
 326 H326          12.4659    -8.1618    -2.6558 H       
 327 H327          11.2085    -6.2231    -1.7563 H       
 328 H328          12.0154    -5.1553    -2.9298 H       
 329 H329          11.0524    -6.4765    -4.7941 H       
 330 H330          10.2455    -7.5442    -3.6206 H       
 331 H331           8.9881    -5.6055    -2.7211 H       
 332 H332           9.7950    -4.5378    -3.8946 H       
 333 H333           8.8320    -5.8589    -5.7589 H       
 334 H334           8.0251    -6.9267    -4.5855 H       
 335 H335           6.7677    -4.9880    -3.6859 H       
 336 H336           7.5746    -3.9202    -4.8594 H       
 337 H337           6.6116    -5.2414    -6.7238 H       
 338 H338           5.8047    -6.3091    -5.5503 H       
 339 H339           4.5473    -4.3704    -4.6508 H       
 340 H340           5.3542    -3.3027    -5.8242 H       
 341 H341           3.5843    -5.6916    -6.5151 H       
 342 H342           4.3912    -4.6238    -7.6886 H       
@<TRIPOS>BOND
   1    1    2 2
   2    1    4 1
   3    1   10 am
   4    3  146 am
   5    3    4 1
   6    3  163 1
   7    4    5 1
   8    4  164 1
   9    5    6 1
  10    5    7 1
  11    5  165 1
  12    6  166 1
  13    6  167 1
  14    6  168 1
  15    7  169 1
  16    8    9 2
  17    8   11 1
  18    8   17 am
  19   10   11 1
  20   10  170 1
  21   11   12 1
  22   11  171 1
  23   12   13 1
  24   12   14 1
  25   12  172 1
  26   13  173 1
  27   13  174 1
  28   13  175 1
  29   14  176 1
  30   14  177 1
  31   14  178 1
  32   15   16 2
  33   15   18 1
  34   15   28 am
  35   17   18 1
  36   17  179 1
  37   18   19 1
  38   18  180 1
  39   19   20 1
  40   19  181 1
  41   19  182 1
  42   20   21 ar
  43   20   25 ar
  44   21   22 ar
  45   21  183 1
  46   22   23 ar
  47   22  184 1
  48   23   24 ar
  49   23  185 1
  50   24   25 ar
  51   24  186 1
  52   25  187 1
  53   26   27 2
  54   26   29 1
  55   26   39 am
  56   28   29 1
  57   28  188 1
  58   29   30 1
  59   29  189 1
  60   30   31 1
  61   30  190 1
  62   30  191 1
  63   31   32 1
  64   31  192 1
  65   31  193 1
  66   32   33 1
  67   32  194 1
  68   32  195 1
  69   33   34 1
  70   33  196 1
  71   34   35 2
  72   34   36 1
  73   35  197 1
  74   36  198 1
  75   36  199 1
  76   37   38 2
  77   37   40 1
  78   37   44 am
  79   39   40 1
  80   39  200 1
  81   40   41 1
  82   40  201 1
  83   41  202 1
  84   41  203 1
  85   41  204 1
  86   42   43 2
  87   42   45 1
  88   42   50 am
  89   44   45 1
  90   44  205 1
  91   45   46 1
  92   45  206 1
  93   46   47 1
  94   46  207 1
  95   46  208 1
  96   47  209 1
  97   48   49 2
  98   48   51 1
  99   48   61 am
 100   50   51 1
 101   50  210 1
 102   51   52 1
 103   51  211 1
 104   52   53 1
 105   52  212 1
 106   52  213 1
 107   53   54 1
 108   53  214 1
 109   53  215 1
 110   54   55 1
 111   54  216 1
 112   54  217 1
 113   55   56 1
 114   55  218 1
 115   56   57 2
 116   56   58 1
 117   57  219 1
 118   58  220 1
 119   58  221 1
 120   59   60 2
 121   59   62 1
 122   59   70 am
 123   61   62 1
 124   61  222 1
 125   62   63 1
 126   62  223 1
 127   63   64 1
 128   63  224 1
 129   63  225 1
 130   64   65 1
 131   64  226 1
 132   64  227 1
 133   65   66 2
 134   65   67 1
 135   67  228 1
 136   68   69 2
 137   68   71 1
 138   68   79 am
 139   70   71 1
 140   70  229 1
 141   71   72 1
 142   71  230 1
 143   72   73 1
 144   72  231 1
 145   72  232 1
 146   73   74 1
 147   73  233 1
 148   73  234 1
 149   74   75 1
 150   74  235 1
 151   74  236 1
 152   75   76 1
 153   75  237 1
 154   75  238 1
 155   76  239 1
 156   76  240 1
 157   77   78 2
 158   77   80 1
 159   77   90 am
 160   79   80 1
 161   79  241 1
 162   80   81 1
 163   80  242 1
 164   81   82 1
 165   81  243 1
 166   81  244 1
 167   82   83 1
 168   82  245 1
 169   82  246 1
 170   83   84 1
 171   83  247 1
 172   83  248 1
 173   84   85 1
 174   84  249 1
 175   85   86 2
 176   85   87 1
 177   86  250 1
 178   87  251 1
 179   87  252 1
 180   88   89 2
 181   88   91 1
 182   88  101 am
 183   90   91 1
 184   90  253 1
 185   91   92 1
 186   91  254 1
 187   92   93 1
 188   92  255 1
 189   92  256 1
 190   93   94 1
 191   93  257 1
 192   93  258 1
 193   94   95 1
 194   94  259 1
 195   94  260 1
 196   95   96 1
 197   95  261 1
 198   96   97 2
 199   96   98 1
 200   97  262 1
 201   98  263 1
 202   98  264 1
 203   99  100 2
 204   99  102 1
 205   99  107 am
 206  101  102 1
 207  101  265 1
 208  102  103 1
 209  102  266 1
 210  103  104 1
 211  103  267 1
 212  103  268 1
 213  104  269 1
 214  105  106 2
 215  105  108 1
 216  105  112 am
 217  107  108 1
 218  107  270 1
 219  108  109 1
 220  108  271 1
 221  109  272 1
 222  109  273 1
 223  109  274 1
 224  110  111 2
 225  110  113 1
 226  110  120 am
 227  112  113 1
 228  112  275 1
 229  113  114 1
 230  113  276 1
 231  114  115 1
 232  114  277 1
 233  114  278 1
 234  115  116 2
 235  115  117 1
 236  117  279 1
 237  118  119 2
 238  118  121 1
 239  118  128 am
 240  120  121 1
 241  120  280 1
 242  121  122 1
 243  121  281 1
 244  122  123 1
 245  122  125 1
 246  122  282 1
 247  123  124 1
 248  123  283 1
 249  123  284 1
 250  124  285 1
 251  124  286 1
 252  124  287 1
 253  125  288 1
 254  125  289 1
 255  125  290 1
 256  126  127 2
 257  126  129 1
 258  126  139 am
 259  128  129 1
 260  128  291 1
 261  129  130 1
 262  129  292 1
 263  130  131 1
 264  130  293 1
 265  130  294 1
 266  131  132 ar
 267  131  136 ar
 268  132  133 ar
 269  132  295 1
 270  133  134 ar
 271  133  296 1
 272  134  135 ar
 273  134  297 1
 274  135  136 ar
 275  135  298 1
 276  136  299 1
 277  137  138 2
 278  137  140 1
 279  137  145 1
 280  139  140 1
 281  139  300 1
 282  140  141 1
 283  140  301 1
 284  141  142 1
 285  141  144 1
 286  141  302 1
 287  142  143 1
 288  142  303 1
 289  142  304 1
 290  143  305 1
 291  143  306 1
 292  143  307 1
 293  144  308 1
 294  144  309 1
 295  144  310 1
 296  145  311 1
 297  146  147 2
 298  146  162 1
 299  148  149 1
 300  148  312 1
 301  148  313 1
 302  148  314 1
 303  149  150 1
 304  149  315 1
 305  149  316 1
 306  150  151 1
 307  150  317 1
 308  150  318 1
 309  151  152 1
 310  151  319 1
 311  151  320 1
 312  152  153 1
 313  152  321 1
 314  152  322 1
 315  153  154 1
 316  153  323 1
 317  153  324 1
 318  154  155 1
 319  154  325 1
 320  154  326 1
 321  155  156 1
 322  155  327 1
 323  155  328 1
 324  156  157 1
 325  156  329 1
 326  156  330 1
 327  157  158 1
 328  157  331 1
 329  157  332 1
 330  158  159 1
 331  158  333 1
 332  158  334 1
 333  159  160 1
 334  159  335 1
 335  159  336 1
 336  160  161 1
 337  160  337 1
 338  160  338 1
 339  161  162 1
 340  161  339 1
 341  161  340 1
 342  162  341 1
 343  162  342 1

#	End of record

