#	Name: ASD02508483
#	Creating user name:	WinNT
#	Creation time:	15. 06. 2019 20:24

#	Modifying user name:	WinNT
#	Modification time:	15. 06. 2019 20:24

#	Program:	/corina/corina34_cracker 3.40 0067  02.08.2006

@<TRIPOS>MOLECULE
ASD02508483
  35   37    0    0    0
SMALL
NO_CHARGES


@<TRIPOS>ATOM
   1 C1            -0.0518     1.3038     0.2318 C.2     
   2 C2             0.0480    -0.0576    -0.0771 C.2     
   3 C3             1.3549    -0.3462    -0.2739 C.2     
   4 N4             2.0607     0.8006    -0.0943 N.pl3   
   5 N5             1.1510     1.8181     0.2219 N.2     
   6 C6             3.4474     0.9404    -0.2052 C.ar    
   7 C7             3.9867     2.0414    -0.8629 C.ar    
   8 N8             4.2514     0.0271     0.3209 N.ar    
   9 C9             5.5619     0.1620     0.2145 C.ar    
  10 C10            6.0949     1.2543    -0.4447 C.ar    
  11 N11            5.2963     2.1703    -0.9658 N.ar    
  12 S12            2.0212    -1.9240    -0.6877 S.o2    
  13 N13            2.0403    -2.0300    -2.3401 N.am    
  14 C14            2.8570    -1.1747    -3.0862 C.ar    
  15 C15            2.3534    -0.5418    -4.2154 C.ar    
  16 O16            3.3797    -1.9077    -0.2709 O.2     
  17 O17            1.0808    -2.8880    -0.2345 O.2     
  18 C18            4.1709    -0.9524    -2.6961 C.ar    
  19 C19            4.9760    -0.1070    -3.4347 C.ar    
  20 C20            4.4737     0.5183    -4.5631 C.ar    
  21 C21            3.1618     0.3025    -4.9508 C.ar    
  22 F22            5.2626     1.3450    -5.2837 F       
  23 C23            2.6180     0.9842    -6.1798 C.3     
  24 H24           -0.9665     1.8395     0.4386 H       
  25 H25           -0.7737    -0.7550    -0.1460 H       
  26 H26            3.3347     2.7895    -1.2891 H       
  27 H27            6.2172    -0.5817     0.6433 H       
  28 H28            7.1662     1.3621    -0.5299 H       
  29 H29            1.4849    -2.6854    -2.7905 H       
  30 H30            1.3305    -0.7101    -4.5183 H       
  31 H31            4.5631    -1.4397    -1.8157 H       
  32 H32            5.9979     0.0665    -3.1315 H       
  33 H33            2.7879     0.3518    -7.0512 H       
  34 H34            1.5484     1.1546    -6.0576 H       
  35 H35            3.1244     1.9392    -6.3196 H       
@<TRIPOS>BOND
   1    1    2 1
   2    1    5 2
   3    1   24 1
   4    2    3 2
   5    2   25 1
   6    3    4 1
   7    3   12 1
   8    4    5 1
   9    4    6 1
  10    6    7 ar
  11    6    8 ar
  12    7   11 ar
  13    7   26 1
  14    8    9 ar
  15    9   10 ar
  16    9   27 1
  17   10   11 ar
  18   10   28 1
  19   12   13 am
  20   12   16 2
  21   12   17 2
  22   13   14 1
  23   13   29 1
  24   14   18 ar
  25   14   15 ar
  26   15   21 ar
  27   15   30 1
  28   18   19 ar
  29   18   31 1
  30   19   20 ar
  31   19   32 1
  32   20   21 ar
  33   20   22 1
  34   21   23 1
  35   23   33 1
  36   23   34 1
  37   23   35 1

#	End of record

