#	Name: ASD01915027
#	Creating user name:	WinNT
#	Creation time:	15. 06. 2019 20:04

#	Modifying user name:	WinNT
#	Modification time:	15. 06. 2019 20:04

#	Program:	/corina/corina34_cracker 3.40 0067  02.08.2006

@<TRIPOS>MOLECULE
ASD01915027
  42   45    0    0    0
SMALL
NO_CHARGES


@<TRIPOS>ATOM
   1 C1            -0.0350     1.3808    -0.0570 C.ar    
   2 C2            -0.0187    -0.0028    -0.0732 C.ar    
   3 C3             1.2109    -0.6509    -0.0792 C.ar    
   4 C4             2.3708     0.1013    -0.0688 C.ar    
   5 N5             2.3209     1.4201    -0.0529 N.ar    
   6 C6             1.1702     2.0712    -0.0473 C.ar    
   7 O7             1.1666     3.4284    -0.0319 O.3     
   8 C8             2.4381     4.0804    -0.0225 C.3     
   9 C9             2.2367     5.5738    -0.0058 C.2     
  10 C10            1.0034     6.2391     0.0055 C.2     
  11 N11            3.1856     6.4808     0.0065 N.2     
  12 C12            1.3176     7.5684     0.0173 C.2     
  13 C13            0.4739     8.7728     0.0368 C.2     
  14 N14            2.6924     7.6568     0.0286 N.pl3   
  15 C15            3.3692     8.9584     0.0781 C.3     
  16 C16            2.4977    10.0060    -0.6131 C.3     
  17 N17            1.1056     9.9531    -0.1736 N.am    
  18 O18           -0.7254     8.7127     0.2307 O.2     
  19 C19            3.5938     9.3624     1.5366 C.3     
  20 F20            1.2719    -2.0004    -0.0944 F       
  21 C21            0.4126    11.1439     0.0386 C.ar    
  22 N22            0.3704    11.6702     1.2524 N.ar    
  23 C23           -0.2737    12.7951     1.4973 C.ar    
  24 C24           -0.9332    13.4688     0.4852 C.ar    
  25 C25           -0.9122    12.9484    -0.8033 C.ar    
  26 C26           -0.2224    11.7699    -1.0278 C.ar    
  27 F27           -1.5908    14.6197     0.7464 F       
  28 H28           -0.9725     1.9169    -0.0565 H       
  29 H29           -0.9402    -0.5660    -0.0807 H       
  30 H30            3.3293    -0.3962    -0.0733 H       
  31 H31            2.9945     3.7789     0.8650 H       
  32 H32            2.9973     3.7992    -0.9148 H       
  33 H33            0.0181     5.7968     0.0045 H       
  34 H34            4.3294     8.8891    -0.4330 H       
  35 H35            2.8980    10.9964    -0.3961 H       
  36 H36            2.5353     9.8410    -1.6899 H       
  37 H37            4.2122     8.6127     2.0302 H       
  38 H38            4.0963    10.3290     1.5727 H       
  39 H39            2.6328     9.4334     2.0461 H       
  40 H40           -0.2866    13.1947     2.5006 H       
  41 H41           -1.4193    13.4542    -1.6116 H       
  42 H42           -0.1819    11.3396    -2.0176 H       
@<TRIPOS>BOND
   1    1    2 ar
   2    1    6 ar
   3    1   28 1
   4    2    3 ar
   5    2   29 1
   6    3    4 ar
   7    3   20 1
   8    4    5 ar
   9    4   30 1
  10    5    6 ar
  11    6    7 1
  12    7    8 1
  13    8    9 1
  14    8   31 1
  15    8   32 1
  16    9   11 2
  17    9   10 1
  18   10   12 2
  19   10   33 1
  20   11   14 1
  21   12   14 1
  22   12   13 1
  23   13   17 am
  24   13   18 2
  25   14   15 1
  26   15   16 1
  27   15   19 1
  28   15   34 1
  29   16   17 1
  30   16   35 1
  31   16   36 1
  32   17   21 1
  33   19   37 1
  34   19   38 1
  35   19   39 1
  36   21   22 ar
  37   21   26 ar
  38   22   23 ar
  39   23   24 ar
  40   23   40 1
  41   24   25 ar
  42   24   27 1
  43   25   26 ar
  44   25   41 1
  45   26   42 1

#	End of record

