#	Name: ASD03090168
#	Creating user name:	WinNT
#	Creation time:	15. 06. 2019 20:28

#	Modifying user name:	WinNT
#	Modification time:	15. 06. 2019 20:28

#	Program:	/corina/corina34_cracker 3.40 0067  02.08.2006

@<TRIPOS>MOLECULE
ASD03090168
  54   56    0    0    0
SMALL
NO_CHARGES


@<TRIPOS>ATOM
   1 N1            -0.2823     0.9133    -0.8021 N.ar    
   2 C2            -0.1618    -0.1757    -0.0724 C.ar    
   3 C3             1.0683    -0.7793     0.1099 C.ar    
   4 C4             2.2002    -0.2196    -0.4931 C.ar    
   5 C5             2.0368     0.9366    -1.2612 C.ar    
   6 C6             0.7622     1.4814    -1.3943 C.ar    
   7 C7             3.5351    -0.8354    -0.3218 C.2     
   8 N8             7.0485    -0.8233    -0.4216 N.pl3   
   9 C9             7.4634     0.3970    -0.9651 C.ar    
  10 C10            6.6851     1.0316    -1.9242 C.ar    
  11 C11            7.0966     2.2368    -2.4591 C.ar    
  12 C12            8.2843     2.8119    -2.0401 C.ar    
  13 C13            9.0624     2.1805    -1.0841 C.ar    
  14 C14            8.6519     0.9786    -0.5420 C.ar    
  15 N15            4.6937    -0.2506    -0.5506 N.2     
  16 C16            5.6867    -1.1018    -0.2900 C.2     
  17 N17            5.1773    -2.2447     0.1096 N.2     
  18 N18            3.7811    -2.0950     0.1025 N.pl3   
  19 C19            2.7878    -3.1062     0.4729 C.3     
  20 C20            2.5401    -3.0491     1.9816 C.3     
  21 C21            1.5184    -4.0893     2.3626 C.2     
  22 F22            8.6851     3.9905    -2.5650 F       
  23 O23            1.1424    -4.2229     3.6442 O.3     
  24 O24            1.0377    -4.8031     1.5145 O.2     
  25 C25            0.1541    -5.2453     3.9381 C.3     
  26 C26            0.6980    -6.6142     3.5244 C.3     
  27 C27           -0.1463    -5.2480     5.4383 C.3     
  28 C28           -1.1307    -4.9510     3.1612 C.3     
  29 C29            0.5756     2.6658    -2.1773 C.1     
  30 N30            0.4276     3.6053    -2.7985 N.1     
  31 C31           10.3549     2.8087    -0.6304 C.3     
  32 F32           10.9578     1.9918     0.3321 F       
  33 F33           11.2138     2.9510    -1.7255 F       
  34 F34           10.0929     4.0665    -0.0767 F       
  35 H35           -1.0380    -0.6041     0.3915 H       
  36 H36            1.1548    -1.6724     0.7111 H       
  37 H37            2.8851     1.4000    -1.7430 H       
  38 H38            7.7068    -1.4760    -0.1362 H       
  39 H39            5.7589     0.5831    -2.2518 H       
  40 H40            6.4916     2.7308    -3.2050 H       
  41 H41            9.2588     0.4867     0.2037 H       
  42 H42            1.8552    -2.9102    -0.0561 H       
  43 H43            3.1580    -4.0951     0.2026 H       
  44 H44            3.4728    -3.2450     2.5107 H       
  45 H45            2.1699    -2.0601     2.2519 H       
  46 H46            1.6134    -6.8239     4.0779 H       
  47 H47           -0.0438    -7.3817     3.7451 H       
  48 H48            0.9121    -6.6123     2.4557 H       
  49 H49           -0.5338    -4.2727     5.7330 H       
  50 H50           -0.8881    -6.0155     5.6589 H       
  51 H51            0.7691    -5.4576     5.9918 H       
  52 H52           -0.9167    -4.9491     2.0925 H       
  53 H53           -1.8726    -5.7185     3.3819 H       
  54 H54           -1.5182    -3.9758     3.4559 H       
@<TRIPOS>BOND
   1    1    2 ar
   2    1    6 ar
   3    2    3 ar
   4    2   35 1
   5    3    4 ar
   6    3   36 1
   7    4    5 ar
   8    4    7 1
   9    5    6 ar
  10    5   37 1
  11    6   29 1
  12    7   15 2
  13    7   18 1
  14    8    9 1
  15    8   16 1
  16    8   38 1
  17    9   10 ar
  18    9   14 ar
  19   10   11 ar
  20   10   39 1
  21   11   12 ar
  22   11   40 1
  23   12   13 ar
  24   12   22 1
  25   13   14 ar
  26   13   31 1
  27   14   41 1
  28   15   16 1
  29   16   17 2
  30   17   18 1
  31   18   19 1
  32   19   20 1
  33   19   42 1
  34   19   43 1
  35   20   21 1
  36   20   44 1
  37   20   45 1
  38   21   23 1
  39   21   24 2
  40   23   25 1
  41   25   26 1
  42   25   27 1
  43   25   28 1
  44   26   46 1
  45   26   47 1
  46   26   48 1
  47   27   49 1
  48   27   50 1
  49   27   51 1
  50   28   52 1
  51   28   53 1
  52   28   54 1
  53   29   30 3
  54   31   32 1
  55   31   33 1
  56   31   34 1

#	End of record

