#	Name: ASD03330559
#	Creating user name:	WinNT
#	Creation time:	15. 06. 2019 20:37

#	Modifying user name:	WinNT
#	Modification time:	15. 06. 2019 20:37

#	Program:	/corina/corina34_cracker 3.40 0067  02.08.2006

@<TRIPOS>MOLECULE
ASD03330559
  63   65    0    0    0
SMALL
NO_CHARGES


@<TRIPOS>ATOM
   1 C1            -0.3212     1.1720     0.8808 C.2     
   2 N2            -0.3470    -0.1666     1.1169 N.pl3   
   3 C3             0.9839     1.5595     0.9156 C.2     
   4 N4             1.7339     0.4611     1.1529 N.2     
   5 C5             0.9440    -0.5805     1.2693 C.2     
   6 C6             1.3805    -1.9709     1.5230 C.ar    
   7 C7             1.4879     2.9313     0.7273 C.2     
   8 O8             0.7093     3.8419     0.5181 O.2     
   9 C9             3.3128     4.5409     0.5998 C.3     
  10 N10            2.8118     3.1770     0.7870 N.am    
  11 C11            3.4765     4.8234    -0.8949 C.3     
  12 C12            2.1039     4.8059    -1.5706 C.3     
  13 C13            4.1219     6.1973    -1.0866 C.3     
  14 C14            4.3675     3.7494    -1.5224 C.3     
  15 C15            4.6462     4.6849     1.2873 C.2     
  16 N16            5.1817     5.9082     1.4695 N.am    
  17 O17            5.2373     3.7001     1.6765 O.2     
  18 C18            6.5100     6.0440     2.0723 C.3     
  19 C19           -1.5554    -0.9913     1.2023 C.3     
  20 C20           -2.4721    -0.6633     0.0196 C.3     
  21 C21           -3.3820     0.5062     0.3813 C.3     
  22 N22           -2.6991     1.4507     1.2676 N.3     
  23 C23           -1.5221     2.0418     0.6137 C.3     
  24 C24           -3.6211     2.4943     1.7355 C.3     
  25 C25            2.6312    -2.4034     1.0813 C.ar    
  26 C26            3.0335    -3.7010     1.3204 C.ar    
  27 C27            2.1977    -4.5745     1.9974 C.ar    
  28 C28            0.9539    -4.1498     2.4379 C.ar    
  29 C29            0.5450    -2.8528     2.2099 C.ar    
  30 C30            4.3843    -4.1696     0.8439 C.3     
  31 F31            2.5962    -5.8445     2.2287 F       
  32 H32            2.6047     5.2501     1.0282 H       
  33 H33            3.4328     2.4508     0.9539 H       
  34 H34            1.4692     5.5710    -1.1236 H       
  35 H35            2.2206     5.0072    -2.6355 H       
  36 H36            1.6442     3.8271    -1.4340 H       
  37 H37            5.0827     6.2224    -0.5724 H       
  38 H38            4.2740     6.3821    -2.1500 H       
  39 H39            3.4688     6.9663    -0.6739 H       
  40 H40            3.9078     2.7706    -1.3858 H       
  41 H41            4.4841     3.9507    -2.5873 H       
  42 H42            5.3454     3.7619    -1.0410 H       
  43 H43            4.6876     6.6988     1.2016 H       
  44 H44            6.5018     5.6086     3.0715 H       
  45 H45            7.2436     5.5246     1.4557 H       
  46 H46            6.7730     7.0997     2.1382 H       
  47 H47           -1.2802    -2.0455     1.1685 H       
  48 H48           -2.0758    -0.7794     2.1363 H       
  49 H49           -1.8656    -0.3966    -0.8459 H       
  50 H50           -3.0805    -1.5353    -0.2201 H       
  51 H51           -3.6797     1.0231    -0.5310 H       
  52 H52           -4.2721     0.1253     0.8821 H       
  53 H53           -1.3455     3.0400     1.0144 H       
  54 H54           -1.6951     2.1045    -0.4606 H       
  55 H55           -4.4437     2.0337     2.2826 H       
  56 H56           -3.0882     3.1822     2.3919 H       
  57 H57           -4.0155     3.0412     0.8791 H       
  58 H58            3.2832    -1.7236     0.5529 H       
  59 H59            0.3060    -4.8346     2.9649 H       
  60 H60           -0.4241    -2.5228     2.5538 H       
  61 H61            5.1265    -3.9890     1.6214 H       
  62 H62            4.3417    -5.2361     0.6229 H       
  63 H63            4.6615    -3.6226    -0.0572 H       
@<TRIPOS>BOND
   1    1    2 1
   2    1    3 2
   3    1   23 1
   4    2   19 1
   5    2    5 1
   6    3    4 1
   7    3    7 1
   8    4    5 2
   9    5    6 1
  10    6   25 ar
  11    6   29 ar
  12    7    8 2
  13    7   10 am
  14    9   10 1
  15    9   11 1
  16    9   15 1
  17    9   32 1
  18   10   33 1
  19   11   12 1
  20   11   13 1
  21   11   14 1
  22   12   34 1
  23   12   35 1
  24   12   36 1
  25   13   37 1
  26   13   38 1
  27   13   39 1
  28   14   40 1
  29   14   41 1
  30   14   42 1
  31   15   16 am
  32   15   17 2
  33   16   18 1
  34   16   43 1
  35   18   44 1
  36   18   45 1
  37   18   46 1
  38   19   20 1
  39   19   47 1
  40   19   48 1
  41   20   21 1
  42   20   49 1
  43   20   50 1
  44   21   22 1
  45   21   51 1
  46   21   52 1
  47   22   23 1
  48   22   24 1
  49   23   53 1
  50   23   54 1
  51   24   55 1
  52   24   56 1
  53   24   57 1
  54   25   26 ar
  55   25   58 1
  56   26   27 ar
  57   26   30 1
  58   27   28 ar
  59   27   31 1
  60   28   29 ar
  61   28   59 1
  62   29   60 1
  63   30   61 1
  64   30   62 1
  65   30   63 1

#	End of record

