#	Name: ASD03180020
#	Creating user name:	WinNT
#	Creation time:	15. 06. 2019 20:33

#	Modifying user name:	WinNT
#	Modification time:	15. 06. 2019 20:33

#	Program:	/corina/corina34_cracker 3.40 0067  02.08.2006

@<TRIPOS>MOLECULE
ASD03180020
  51   53    0    0    0
SMALL
NO_CHARGES


@<TRIPOS>ATOM
   1 C1             7.4402     3.6437     1.7868 C.ar    
   2 C2             7.1967     4.9869     2.0343 C.ar    
   3 C3             5.9831     5.5489     1.6655 C.ar    
   4 C4             5.0204     4.7702     1.0530 C.ar    
   5 C5             5.2653     3.4317     0.8079 C.ar    
   6 C6             6.4741     2.8693     1.1741 C.ar    
   7 S7             4.0348     2.4410     0.0275 S.o2    
   8 O8             2.7811     3.0181     0.3656 O.2     
   9 N9             4.2133     2.6351    -1.6073 N.am    
  10 O10            4.3695     1.0891     0.3100 O.2     
  11 C11            3.4068     3.6296    -2.3193 C.3     
  12 C12            5.1777     1.8125    -2.3417 C.3     
  13 C13            4.4619     0.6524    -2.9843 C.ar    
  14 C14            4.1872     4.9127    -2.4447 C.2     
  15 N15            3.6409     5.9755    -3.0680 N.am    
  16 C16            4.3999     7.1331    -3.2722 C.ar    
  17 O17            5.3068     4.9890    -1.9847 O.2     
  18 C18            4.0123     0.7538    -4.2875 C.ar    
  19 C19            3.3556    -0.3104    -4.8769 C.ar    
  20 C20            3.1490    -1.4760    -4.1632 C.ar    
  21 C21            3.5995    -1.5778    -2.8602 C.ar    
  22 C22            4.2599    -0.5152    -2.2723 C.ar    
  23 C23            4.2234     7.8865    -4.4257 C.ar    
  24 C24            4.9738     9.0286    -4.6247 C.ar    
  25 C25            5.9006     9.4229    -3.6772 C.ar    
  26 C26            6.0795     8.6747    -2.5273 C.ar    
  27 C27            5.3269     7.5340    -2.3196 C.ar    
  28 O28            8.1452     5.7507     2.6374 O.3     
  29 C29            7.8256     7.1255     2.8607 C.3     
  30 Br30           7.3485     9.2176    -1.2347 Br      
  31 H31            8.3858     3.2049     2.0690 H       
  32 H32            5.7911     6.5942     1.8574 H       
  33 H33            4.0755     5.2073     0.7657 H       
  34 H34            6.6632     1.8236     0.9812 H       
  35 H35            3.1618     3.2547    -3.3130 H       
  36 H36            2.4873     3.8163    -1.7645 H       
  37 H37            5.6571     2.4157    -3.1127 H       
  38 H38            5.9336     1.4362    -1.6524 H       
  39 H39            2.7215     5.9379    -3.3751 H       
  40 H40            4.1737     1.6645    -4.8451 H       
  41 H41            3.0037    -0.2309    -5.8948 H       
  42 H42            2.6354    -2.3072    -4.6234 H       
  43 H43            3.4378    -2.4884    -2.3025 H       
  44 H44            4.6151    -0.5960    -1.2556 H       
  45 H45            3.5001     7.5792    -5.1665 H       
  46 H46            4.8370     9.6143    -5.5217 H       
  47 H47            6.4862    10.3164    -3.8353 H       
  48 H48            5.4630     6.9529    -1.4195 H       
  49 H49            6.9446     7.1947     3.4988 H       
  50 H50            8.6665     7.6196     3.3475 H       
  51 H51            7.6220     7.6109     1.9062 H       
@<TRIPOS>BOND
   1    1    2 ar
   2    1    6 ar
   3    1   31 1
   4    2    3 ar
   5    2   28 1
   6    3    4 ar
   7    3   32 1
   8    4    5 ar
   9    4   33 1
  10    5    6 ar
  11    5    7 1
  12    6   34 1
  13    7    8 2
  14    7    9 am
  15    7   10 2
  16    9   11 1
  17    9   12 1
  18   11   14 1
  19   11   35 1
  20   11   36 1
  21   12   13 1
  22   12   37 1
  23   12   38 1
  24   13   18 ar
  25   13   22 ar
  26   14   15 am
  27   14   17 2
  28   15   16 1
  29   15   39 1
  30   16   23 ar
  31   16   27 ar
  32   18   19 ar
  33   18   40 1
  34   19   20 ar
  35   19   41 1
  36   20   21 ar
  37   20   42 1
  38   21   22 ar
  39   21   43 1
  40   22   44 1
  41   23   24 ar
  42   23   45 1
  43   24   25 ar
  44   24   46 1
  45   25   26 ar
  46   25   47 1
  47   26   27 ar
  48   26   30 1
  49   27   48 1
  50   28   29 1
  51   29   49 1
  52   29   50 1
  53   29   51 1

#	End of record

