#	Name: ASD02038010
#	Creating user name:	WinNT
#	Creation time:	15. 06. 2019 20:16

#	Modifying user name:	WinNT
#	Modification time:	15. 06. 2019 20:16

#	Program:	/corina/corina34_cracker 3.40 0067  02.08.2006

@<TRIPOS>MOLECULE
ASD02038010
  42   45    0    0    0
SMALL
NO_CHARGES


@<TRIPOS>ATOM
   1 N1            -0.0163     1.3789    -0.0919 N.am    
   2 C2            -1.8876     4.6477     0.1993 C.3     
   3 N3            -0.9770     3.4951     0.1276 N.am    
   4 C4            -1.1102     2.1583     0.0193 C.2     
   5 C5            -0.6355     6.8960     0.2031 C.3     
   6 O6             0.3514     7.6409    -0.5134 O.3     
   7 C7             0.5932     8.9107    -0.0915 C.ar    
   8 C8             1.5391     9.6895    -0.7427 C.ar    
   9 C9            -0.1098     9.4288     0.9861 C.ar    
  10 C10            0.1349    10.7185     1.4154 C.ar    
  11 C11            1.0852    11.4962     0.7681 C.ar    
  12 C12            1.7847    10.9784    -0.3143 C.ar    
  13 N13            1.3365    12.8040     1.2006 N.am    
  14 C14            1.9564    13.6824     0.3913 C.2     
  15 C15            2.3751    13.2855    -0.9986 C.3     
  16 C16            2.8161    11.8247    -1.0144 C.3     
  17 O17           -2.2164     1.6559     0.0219 O.2     
  18 O18            2.1798    14.8072     0.7866 O.2     
  19 C19            0.1430     4.4432     0.2253 C.3     
  20 C20           -0.7680     5.5015    -0.4121 C.3     
  21 C21            0.0095     0.0047    -0.1273 C.2     
  22 C22            1.2749     1.8028    -0.1967 C.2     
  23 N23            2.0472     0.7570    -0.2907 N.2     
  24 C24            1.2988    -0.3568    -0.2508 C.2     
  25 H25           -2.7613     4.5514    -0.4454 H       
  26 H26           -2.1450     4.9348     1.2188 H       
  27 H27           -0.3353     6.8056     1.2471 H       
  28 H28           -1.5939     7.4118     0.1440 H       
  29 H29            2.0832     9.2872    -1.5844 H       
  30 H30           -0.8492     8.8235     1.4894 H       
  31 H31           -0.4130    11.1219     2.2541 H       
  32 H32            1.0617    13.0787     2.0894 H       
  33 H33            1.5345    13.4139    -1.6805 H       
  34 H34            3.2018    13.9181    -1.3221 H       
  35 H35            3.7720    11.7284    -0.4996 H       
  36 H36            2.9238    11.4890    -2.0458 H       
  37 H37            0.4265     4.6759     1.2518 H       
  38 H38            0.9960     4.1730    -0.3972 H       
  39 H39           -0.7536     5.5057    -1.5020 H       
  40 H40           -0.8418    -0.6571    -0.0669 H       
  41 H41            1.6028     2.8318    -0.2011 H       
  42 H42            1.6689    -1.3698    -0.3078 H       
@<TRIPOS>BOND
   1    1   21 1
   2    1   22 1
   3    1    4 am
   4    2    3 1
   5    2   20 1
   6    2   25 1
   7    2   26 1
   8    3    4 am
   9    3   19 1
  10    4   17 2
  11    5    6 1
  12    5   20 1
  13    5   27 1
  14    5   28 1
  15    6    7 1
  16    7    8 ar
  17    7    9 ar
  18    8   12 ar
  19    8   29 1
  20    9   10 ar
  21    9   30 1
  22   10   11 ar
  23   10   31 1
  24   11   12 ar
  25   11   13 1
  26   12   16 1
  27   13   14 am
  28   13   32 1
  29   14   15 1
  30   14   18 2
  31   15   16 1
  32   15   33 1
  33   15   34 1
  34   16   35 1
  35   16   36 1
  36   19   20 1
  37   19   37 1
  38   19   38 1
  39   20   39 1
  40   21   24 2
  41   21   40 1
  42   22   23 2
  43   22   41 1
  44   23   24 1
  45   24   42 1

#	End of record

