#	Name: ASD01120302
#	Creating user name:	WinNT
#	Creation time:	15. 06. 2019 18:59

#	Modifying user name:	WinNT
#	Modification time:	15. 06. 2019 18:59

#	Program:	/corina/corina34_cracker 3.40 0067  02.08.2006

@<TRIPOS>MOLECULE
ASD01120302
  36   38    0    0    0
SMALL
NO_CHARGES


@<TRIPOS>ATOM
   1 O1            -0.1249     0.5287    -2.2261 O.2     
   2 N2            -0.1434     1.6897    -1.8584 N.pl3   
   3 O3             0.8724     2.3601    -1.9070 O.2     
   4 C4            -1.4018     2.2878    -1.3581 C.ar    
   5 C5            -2.5514     1.5299    -1.3091 C.ar    
   6 C6            -3.7396     2.0729    -0.8435 C.ar    
   7 C7            -3.7889     3.3886    -0.4202 C.ar    
   8 C8            -2.6225     4.1763    -0.4642 C.ar    
   9 C9            -1.4199     3.6132    -0.9329 C.ar    
  10 N10           -0.4552     4.5912    -0.8683 N.pl3   
  11 C11           -1.0285     5.7481    -0.3709 C.2     
  12 C12           -2.3446     5.5165    -0.1141 C.2     
  13 C13           -0.3286     7.0184    -0.1504 C.2     
  14 O14           -0.9323     7.9761     0.2934 O.2     
  15 O15            0.9845     7.1240    -0.4399 O.3     
  16 N16           -4.9836     3.9307     0.0457 N.pl3   
  17 C17           -6.1697     3.2002    -0.0586 C.ar    
  18 C18           -7.0689     3.1779     1.0000 C.ar    
  19 C19           -8.2409     2.4550     0.8933 C.ar    
  20 C20           -8.5194     1.7535    -0.2653 C.ar    
  21 C21           -7.6263     1.7735    -1.3212 C.ar    
  22 C22           -6.4554     2.4988    -1.2236 C.ar    
  23 C23           -7.9339     1.0070    -2.5817 C.3     
  24 F24           -9.1674     0.3612    -2.4455 F       
  25 F25           -7.9879     1.8918    -3.6641 F       
  26 F26           -6.9321     0.0566    -2.8058 F       
  27 H27           -2.5269     0.5012    -1.6372 H       
  28 H28           -4.6317     1.4649    -0.8116 H       
  29 H29            0.4735     4.4871    -1.1283 H       
  30 H30           -3.0515     6.2311     0.2809 H       
  31 H31            1.4022     7.9809    -0.2777 H       
  32 H32           -4.9923     4.8157     0.4427 H       
  33 H33           -6.8517     3.7250     1.9055 H       
  34 H34           -8.9405     2.4372     1.7159 H       
  35 H35           -9.4363     1.1885    -0.3457 H       
  36 H36           -5.7585     2.5139    -2.0485 H       
@<TRIPOS>BOND
   1    1    2 2
   2    2    3 2
   3    2    4 1
   4    4    5 ar
   5    4    9 ar
   6    5    6 ar
   7    5   27 1
   8    6    7 ar
   9    6   28 1
  10    7    8 ar
  11    7   16 1
  12    8    9 ar
  13    8   12 1
  14    9   10 1
  15   10   11 1
  16   10   29 1
  17   11   12 2
  18   11   13 1
  19   12   30 1
  20   13   14 2
  21   13   15 1
  22   15   31 1
  23   16   17 1
  24   16   32 1
  25   17   18 ar
  26   17   22 ar
  27   18   19 ar
  28   18   33 1
  29   19   20 ar
  30   19   34 1
  31   20   21 ar
  32   20   35 1
  33   21   22 ar
  34   21   23 1
  35   22   36 1
  36   23   24 1
  37   23   25 1
  38   23   26 1

#	End of record

