#	Name: ASD00120068
#	Creating user name:	WinNT
#	Creation time:	15. 06. 2019 18:31

#	Modifying user name:	WinNT
#	Modification time:	15. 06. 2019 18:31

#	Program:	/corina/corina34_cracker 3.40 0067  02.08.2006

@<TRIPOS>MOLECULE
ASD00120068
  47   49    0    0    0
SMALL
NO_CHARGES


@<TRIPOS>ATOM
   1 C1             0.6407     1.2142     1.1236 C.2     
   2 C2             0.8854    -0.0083     1.6326 C.2     
   3 N3             2.2144    -0.1862     1.6642 N.2     
   4 C4             2.8026     0.8796     1.1941 C.2     
   5 N5             1.8566     1.7779     0.8452 N.pl3   
   6 C6             2.0883     3.1072     0.2746 C.3     
   7 C7             2.8316     2.9715    -1.0293 C.2     
   8 C8             2.9185     3.9434     1.2504 C.3     
   9 C9             2.1376     4.1325     2.5525 C.3     
  10 C10            3.0229     4.8271     3.6020 C.3     
  11 C11            2.3203     6.1519     3.9639 C.3     
  12 C12            0.8334     5.9026     3.6092 C.3     
  13 C13            0.9279     5.0594     2.3133 C.3     
  14 N14            3.0348     4.0548    -1.8050 N.am    
  15 O15            3.2470     1.8876    -1.3805 O.2     
  16 C16            3.7493     3.9351    -2.9961 C.ar    
  17 C17            3.8865     2.6880    -3.5944 C.ar    
  18 C18            4.5983     2.5832    -4.7767 C.ar    
  19 C19            5.1503     3.7343    -5.3214 C.ar    
  20 C20            4.9744     4.9409    -4.6728 C.ar    
  21 N21            4.2862     5.0110    -3.5497 N.ar    
  22 C22            5.9339     3.6681    -6.6070 C.3     
  23 C23           -0.1522    -1.0023     2.0870 C.3     
  24 F24           -0.5131    -1.8235     1.0134 F       
  25 F25            0.3744    -1.7875     3.1182 F       
  26 F26           -1.2810    -0.3187     2.5514 F       
  27 H27           -0.3287     1.6619     0.9617 H       
  28 H28            3.8693     1.0202     1.1000 H       
  29 H29            1.1315     3.5986     0.0979 H       
  30 H30            3.8571     3.4307     1.4609 H       
  31 H31            3.1278     4.9172     0.8076 H       
  32 H32            1.8003     3.1667     2.9288 H       
  33 H33            3.1146     4.1989     4.4880 H       
  34 H34            4.0089     5.0295     3.1837 H       
  35 H35            2.4285     6.3628     5.0278 H       
  36 H36            2.7222     6.9719     3.3687 H       
  37 H37            0.3365     5.3408     4.4001 H       
  38 H38            0.3181     6.8443     3.4205 H       
  39 H39            1.1049     5.7029     1.4515 H       
  40 H40            0.0199     4.4730     2.1726 H       
  41 H41            2.6839     4.9177    -1.5345 H       
  42 H42            3.4439     1.8125    -3.1426 H       
  43 H43            4.7218     1.6274    -5.2641 H       
  44 H44            5.4021     5.8393    -5.0929 H       
  45 H45            5.2598     3.8132    -7.4512 H       
  46 H46            6.6935     4.4498    -6.6102 H       
  47 H47            6.4150     2.6935    -6.6895 H       
@<TRIPOS>BOND
   1    1    2 2
   2    1    5 1
   3    1   27 1
   4    2    3 1
   5    2   23 1
   6    3    4 2
   7    4    5 1
   8    4   28 1
   9    5    6 1
  10    6    7 1
  11    6    8 1
  12    6   29 1
  13    7   14 am
  14    7   15 2
  15    8    9 1
  16    8   30 1
  17    8   31 1
  18    9   10 1
  19    9   13 1
  20    9   32 1
  21   10   11 1
  22   10   33 1
  23   10   34 1
  24   11   12 1
  25   11   35 1
  26   11   36 1
  27   12   13 1
  28   12   37 1
  29   12   38 1
  30   13   39 1
  31   13   40 1
  32   14   16 1
  33   14   41 1
  34   16   17 ar
  35   16   21 ar
  36   17   18 ar
  37   17   42 1
  38   18   19 ar
  39   18   43 1
  40   19   20 ar
  41   19   22 1
  42   20   21 ar
  43   20   44 1
  44   22   45 1
  45   22   46 1
  46   22   47 1
  47   23   24 1
  48   23   25 1
  49   23   26 1

#	End of record

