#	Name: ASD03930218
#	Creating user name:	WinNT
#	Creation time:	15. 06. 2019 20:47

#	Modifying user name:	WinNT
#	Modification time:	15. 06. 2019 20:47

#	Program:	/corina/corina34_cracker 3.40 0067  02.08.2006

@<TRIPOS>MOLECULE
ASD03930218
  36   38    0    0    0
SMALL
NO_CHARGES


@<TRIPOS>ATOM
   1 C1             5.5433    -0.6553    -3.1203 C.2     
   2 C2             5.1657    -1.0817    -1.7571 C.ar    
   3 C3             3.9456    -1.7223    -1.5363 C.ar    
   4 C4             3.5986    -2.1189    -0.2558 C.ar    
   5 C5             4.4633    -1.8791     0.8043 C.ar    
   6 C6             5.6720    -1.2442     0.5872 C.ar    
   7 C7             6.0307    -0.8503    -0.6858 C.ar    
   8 O8             4.7913    -0.8622    -4.0515 O.2     
   9 O9             6.7191    -0.0322    -3.3297 O.3     
  10 O10            2.4115    -2.7426    -0.0362 O.3     
  11 S11            4.9385    -7.1632    -0.7163 S.o2    
  12 N12            4.7187    -7.9204    -2.1847 N.am    
  13 C13            3.7871    -9.0400    -2.2795 C.3     
  14 C14            2.3493    -8.6449    -1.9783 C.3     
  15 O15            2.2049    -8.2058    -0.6223 O.3     
  16 C16            2.2717    -6.8645    -0.4266 C.ar    
  17 C17            3.4774    -6.1793    -0.4876 C.ar    
  18 C18            1.1089    -6.1438    -0.1770 C.ar    
  19 C19            1.1642    -4.7711    -0.0402 C.ar    
  20 C20            2.3718    -4.0971    -0.1478 C.ar    
  21 C21            3.5425    -4.8160    -0.3701 C.ar    
  22 O22            4.9083    -8.1788     0.2771 O.2     
  23 O23            6.0210    -6.2574    -0.8802 O.2     
  24 H24            3.2740    -1.9078    -2.3615 H       
  25 H25            4.1902    -2.1895     1.8021 H       
  26 H26            6.3398    -1.0603     1.4158 H       
  27 H27            6.9778    -0.3589    -0.8525 H       
  28 H28            6.9224     0.2279    -4.2386 H       
  29 H29            5.2048    -7.6198    -2.9685 H       
  30 H30            3.8340    -9.4509    -3.2880 H       
  31 H31            4.0938    -9.8122    -1.5740 H       
  32 H32            2.0528    -7.8380    -2.6484 H       
  33 H33            1.7001    -9.5042    -2.1465 H       
  34 H34            0.1629    -6.6577    -0.0908 H       
  35 H35            0.2580    -4.2164     0.1533 H       
  36 H36            4.4909    -4.3053    -0.4488 H       
@<TRIPOS>BOND
   1    1    2 1
   2    1    8 2
   3    1    9 1
   4    2    3 ar
   5    2    7 ar
   6    3    4 ar
   7    3   24 1
   8    4    5 ar
   9    4   10 1
  10    5    6 ar
  11    5   25 1
  12    6    7 ar
  13    6   26 1
  14    7   27 1
  15    9   28 1
  16   10   20 1
  17   11   12 am
  18   11   17 1
  19   11   22 2
  20   11   23 2
  21   12   13 1
  22   12   29 1
  23   13   14 1
  24   13   30 1
  25   13   31 1
  26   14   15 1
  27   14   32 1
  28   14   33 1
  29   15   16 1
  30   16   17 ar
  31   16   18 ar
  32   17   21 ar
  33   18   19 ar
  34   18   34 1
  35   19   20 ar
  36   19   35 1
  37   20   21 ar
  38   21   36 1

#	End of record

