#	Name: ASD02500029
#	Creating user name:	WinNT
#	Creation time:	15. 06. 2019 20:22

#	Modifying user name:	WinNT
#	Modification time:	15. 06. 2019 20:22

#	Program:	/corina/corina34_cracker 3.40 0067  02.08.2006

@<TRIPOS>MOLECULE
ASD02500029
  61   64    0    0    0
SMALL
NO_CHARGES


@<TRIPOS>ATOM
   1 C1             0.5032    -0.1180     1.5708 C.ar    
   2 C2            -0.6191     0.6634     1.7756 C.ar    
   3 C3            -0.5250     2.0418     1.7253 C.ar    
   4 C4             0.6917     2.6459     1.4701 C.ar    
   5 C5             1.8220     1.8685     1.2641 C.ar    
   6 C6             1.7263     0.4796     1.3150 C.ar    
   7 O7             2.8312    -0.2878     1.1142 O.3     
   8 C8             2.6580    -1.7047     1.1811 C.3     
   9 N9             3.0552     2.4778     1.0049 N.3     
  10 C10            3.9985     2.2468     2.1071 C.3     
  11 C11            5.3826     2.7699     1.7085 C.3     
  12 N12            5.2485     4.1731     1.2885 N.am    
  13 C13            4.2263     4.5042     0.2842 C.3     
  14 C14            2.8877     3.9128     0.7388 C.3     
  15 C15            6.0417     5.1300     1.8097 C.2     
  16 O16            6.8076     4.8587     2.7144 O.2     
  17 C17            5.9808     6.5065     1.2826 C.ar    
  18 C18            6.0997     7.5951     2.1515 C.ar    
  19 C19            6.0425     8.8779     1.6568 C.ar    
  20 C20            5.8663     9.0922     0.2925 C.ar    
  21 C21            5.7475     8.0101    -0.5754 C.ar    
  22 C22            5.8097     6.7249    -0.0876 C.ar    
  23 N23            5.8083    10.3895    -0.2043 N.am    
  24 S24            6.6684    10.7964    -1.5597 S.o2    
  25 O25            6.4939    12.1949    -1.7409 O.2     
  26 C26            8.3734    10.5516    -1.1885 C.ar    
  27 C27            9.0939     9.5815    -1.8574 C.ar    
  28 C28           10.4329     9.3893    -1.5667 C.ar    
  29 C29           11.0526    10.1675    -0.6056 C.ar    
  30 C30           10.3355    11.1390     0.0658 C.ar    
  31 C31            8.9945    11.3372    -0.2282 C.ar    
  32 Br32          11.4170     8.0603    -2.4840 Br      
  33 O33            8.2872    12.2924     0.4311 O.3     
  34 C34            9.0124    13.1288     1.3346 C.3     
  35 O35            6.3318     9.8362    -2.5517 O.2     
  36 H36            0.4270    -1.1944     1.6149 H       
  37 H37           -1.5719     0.1956     1.9751 H       
  38 H38           -1.4043     2.6480     1.8856 H       
  39 H39            0.7623     3.7229     1.4306 H       
  40 H40            2.2862    -1.9791     2.1683 H       
  41 H41            1.9412    -2.0192     0.4225 H       
  42 H42            3.6144    -2.1964     1.0033 H       
  43 H43            3.6534     2.7725     2.9974 H       
  44 H44            4.0595     1.1787     2.3157 H       
  45 H45            6.0578     2.7060     2.5618 H       
  46 H46            5.7745     2.1763     0.8826 H       
  47 H47            4.1370     5.5869     0.1958 H       
  48 H48            4.5071     4.0773    -0.6786 H       
  49 H49            2.1432     4.0529    -0.0449 H       
  50 H50            2.5581     4.4153     1.6482 H       
  51 H51            6.2361     7.4295     3.2100 H       
  52 H52            6.1339     9.7193     2.3276 H       
  53 H53            5.6105     8.1795    -1.6332 H       
  54 H54            5.7179     5.8858    -0.7614 H       
  55 H55            5.2642    11.0563     0.2432 H       
  56 H56            8.6117     8.9724    -2.6076 H       
  57 H57           12.0977    10.0154    -0.3796 H       
  58 H58           10.8196    11.7462     0.8164 H       
  59 H59            9.5357    12.5092     2.0629 H       
  60 H60            9.7359    13.7242     0.7775 H       
  61 H61            8.3189    13.7912     1.8527 H       
@<TRIPOS>BOND
   1    1    2 ar
   2    1    6 ar
   3    1   36 1
   4    2    3 ar
   5    2   37 1
   6    3    4 ar
   7    3   38 1
   8    4    5 ar
   9    4   39 1
  10    5    6 ar
  11    5    9 1
  12    6    7 1
  13    7    8 1
  14    8   40 1
  15    8   41 1
  16    8   42 1
  17    9   10 1
  18    9   14 1
  19   10   11 1
  20   10   43 1
  21   10   44 1
  22   11   12 1
  23   11   45 1
  24   11   46 1
  25   12   13 1
  26   12   15 am
  27   13   14 1
  28   13   47 1
  29   13   48 1
  30   14   49 1
  31   14   50 1
  32   15   16 2
  33   15   17 1
  34   17   18 ar
  35   17   22 ar
  36   18   19 ar
  37   18   51 1
  38   19   20 ar
  39   19   52 1
  40   20   21 ar
  41   20   23 1
  42   21   22 ar
  43   21   53 1
  44   22   54 1
  45   23   24 am
  46   23   55 1
  47   24   25 2
  48   24   26 1
  49   24   35 2
  50   26   27 ar
  51   26   31 ar
  52   27   28 ar
  53   27   56 1
  54   28   29 ar
  55   28   32 1
  56   29   30 ar
  57   29   57 1
  58   30   31 ar
  59   30   58 1
  60   31   33 1
  61   33   34 1
  62   34   59 1
  63   34   60 1
  64   34   61 1

#	End of record

