#	Name: ASD02038033
#	Creating user name:	WinNT
#	Creation time:	15. 06. 2019 20:16

#	Modifying user name:	WinNT
#	Modification time:	15. 06. 2019 20:16

#	Program:	/corina/corina34_cracker 3.40 0067  02.08.2006

@<TRIPOS>MOLECULE
ASD02038033
  40   42    0    0    0
SMALL
NO_CHARGES


@<TRIPOS>ATOM
   1 C1            -0.0165     1.3837     0.0025 C.ar    
   2 N2             1.1854     2.1017     0.0020 N.am    
   3 N3             2.3165     4.1437     0.0016 N.am    
   4 C4             1.1672     3.4460    -0.0923 C.2     
   5 C5             5.2024     5.9242     0.4370 C.3     
   6 O6             6.2255     5.6156     1.3858 O.3     
   7 C7             7.4478     6.1748     1.1796 C.ar    
   8 C8             8.4861     5.9172     2.0623 C.ar    
   9 C9             7.6576     6.9982     0.0834 C.ar    
  10 C10            8.8992     7.5662    -0.1261 C.ar    
  11 C11            9.9359     7.3135     0.7600 C.ar    
  12 C12            9.7277     6.4852     1.8528 C.ar    
  13 O13            0.1140     4.0293    -0.2622 O.2     
  14 C14           -0.1443     0.2424     0.7831 C.ar    
  15 O15           11.1582     7.8723     0.5535 O.3     
  16 C16           -1.0843     1.8149    -0.7731 C.ar    
  17 C17           -2.2696     1.1054    -0.7709 C.ar    
  18 C18           -2.3938    -0.0343     0.0031 C.ar    
  19 C19           -1.3338    -0.4613     0.7861 C.ar    
  20 Cl20          -3.8849    -0.9233     0.0039 Cl      
  21 C21            2.7011     5.5623    -0.0481 C.3     
  22 C22            3.9083     5.2099     0.8320 C.3     
  23 C23            3.7370     3.8220     0.2055 C.3     
  24 Cl24          -1.4927    -1.8923     1.7559 Cl      
  25 H25            2.0312     1.6316     0.0696 H       
  26 H26            5.0333     7.0009     0.4224 H       
  27 H27            5.5132     5.5918    -0.5534 H       
  28 H28            8.3238     5.2727     2.9136 H       
  29 H29            6.8504     7.1950    -0.6066 H       
  30 H30            9.0628     8.2068    -0.9801 H       
  31 H31           10.5348     6.2887     2.5430 H       
  32 H32            0.6850    -0.0952     1.3869 H       
  33 H33           11.2722     8.7355     0.9742 H       
  34 H34           -0.9884     2.7048    -1.3774 H       
  35 H35           -3.1003     1.4411    -1.3740 H       
  36 H36            2.9763     5.9027    -1.0464 H       
  37 H37            1.9857     6.2235     0.4409 H       
  38 H38            3.7054     5.2416     1.9024 H       
  39 H39            3.9026     3.0052     0.9080 H       
  40 H40            4.2879     3.6953    -0.7265 H       
@<TRIPOS>BOND
   1    1   16 ar
   2    1    2 1
   3    1   14 ar
   4    2    4 am
   5    2   25 1
   6    3    4 am
   7    3   21 1
   8    3   23 1
   9    4   13 2
  10    5    6 1
  11    5   22 1
  12    5   26 1
  13    5   27 1
  14    6    7 1
  15    7    8 ar
  16    7    9 ar
  17    8   12 ar
  18    8   28 1
  19    9   10 ar
  20    9   29 1
  21   10   11 ar
  22   10   30 1
  23   11   12 ar
  24   11   15 1
  25   12   31 1
  26   14   19 ar
  27   14   32 1
  28   15   33 1
  29   16   17 ar
  30   16   34 1
  31   17   18 ar
  32   17   35 1
  33   18   19 ar
  34   18   20 1
  35   19   24 1
  36   21   22 1
  37   21   36 1
  38   21   37 1
  39   22   23 1
  40   22   38 1
  41   23   39 1
  42   23   40 1

#	End of record

