#	Name: ASD01720004
#	Creating user name:	WinNT
#	Creation time:	15. 06. 2019 19:22

#	Modifying user name:	WinNT
#	Modification time:	15. 06. 2019 19:22

#	Program:	/corina/corina34_cracker 3.40 0067  02.08.2006

@<TRIPOS>MOLECULE
ASD01720004
  65   69    0    0    0
SMALL
NO_CHARGES


@<TRIPOS>ATOM
   1 C1             1.0389     1.4665     0.2962 C.ar    
   2 C2             1.2381     0.1020     0.3064 C.ar    
   3 C3             2.4714    -0.4259     0.6599 C.ar    
   4 C4             3.5083     0.3950     1.0034 C.ar    
   5 C5             2.0807     2.3159     0.6417 C.ar    
   6 N6             2.2138     3.6871     0.7320 N.pl3   
   7 C7             3.3299     1.7806     0.9997 C.ar    
   8 N8             4.1431     2.8303     1.2838 N.2     
   9 C9             3.4900     3.9446     1.1267 C.2     
  10 C10            1.1738     4.6806     0.4540 C.3     
  11 C11            0.3283     4.8809     1.6853 C.2     
  12 N12           -0.6242     5.8343     1.7010 N.am    
  13 O13            0.5051     4.1842     2.6622 O.2     
  14 C14           -0.7715     6.6941     0.6070 C.ar    
  15 C15           -1.5052     5.9704     2.8635 C.3     
  16 C16           -1.5119     7.0877    -1.6404 C.ar    
  17 C17           -1.3668     6.2373    -0.5615 C.ar    
  18 C18           -0.3279     8.0073     0.6898 C.ar    
  19 C19           -0.4755     8.8546    -0.3934 C.ar    
  20 C20           -1.0656     8.3933    -1.5588 C.ar    
  21 C21           -1.4557     7.3897     3.3679 C.ar    
  22 C22           -2.9179     5.6276     2.4660 C.2     
  23 N23           -3.8615     5.4558     3.4128 N.am    
  24 O24           -3.2056     5.5062     1.2941 O.2     
  25 C25           -5.2064     5.0145     3.0351 C.3     
  26 C26           -5.8827     4.3085     4.2233 C.3     
  27 C27           -7.1487     5.1239     4.5580 C.3     
  28 C28           -7.4847     5.8624     3.2386 C.3     
  29 C29           -6.0851     6.2344     2.6892 C.3     
  30 C30           -1.3652     9.9932     4.2937 C.ar    
  31 C31           -0.3236     9.1258     4.5665 C.ar    
  32 C32           -0.3691     7.8242     4.1039 C.ar    
  33 C33           -2.4941     8.2585     3.0899 C.ar    
  34 C34           -2.4487     9.5605     3.5527 C.ar    
  35 C35            0.7657     6.8785     4.4022 C.3     
  36 F36           -0.0445    10.1326    -0.3147 F       
  37 H37            0.0780     1.8724     0.0163 H       
  38 H38            0.4284    -0.5602     0.0378 H       
  39 H39            2.6133    -1.4965     0.6639 H       
  40 H40            4.4641    -0.0266     1.2776 H       
  41 H41            3.9012     4.9304     1.2862 H       
  42 H42            1.6395     5.6259     0.1753 H       
  43 H43            0.5457     4.3297    -0.3648 H       
  44 H44           -1.1749     5.2932     3.6511 H       
  45 H45           -1.9747     6.7318    -2.5491 H       
  46 H46           -1.7160     5.2174    -0.6267 H       
  47 H47            0.1315     8.3666     1.5988 H       
  48 H48           -1.1803     9.0560    -2.4038 H       
  49 H49           -3.6502     5.6244     4.3444 H       
  50 H50           -5.1514     4.3390     2.1814 H       
  51 H51           -6.1566     3.2905     3.9461 H       
  52 H52           -5.2102     4.2941     5.0810 H       
  53 H53           -7.9655     4.4606     4.8426 H       
  54 H54           -6.9422     5.8395     5.3538 H       
  55 H55           -8.0075     5.2008     2.5479 H       
  56 H56           -8.0727     6.7586     3.4365 H       
  57 H57           -5.7069     7.1294     3.1832 H       
  58 H58           -6.1258     6.3815     1.6099 H       
  59 H59           -1.3297    11.0103     4.6552 H       
  60 H60            0.5230     9.4639     5.1456 H       
  61 H61           -3.3407     7.9204     2.5108 H       
  62 H62           -3.2623    10.2380     3.3396 H       
  63 H63            0.5235     6.2875     5.2855 H       
  64 H64            0.9185     6.2144     3.5515 H       
  65 H65            1.6759     7.4495     4.5855 H       
@<TRIPOS>BOND
   1    1    2 ar
   2    1    5 ar
   3    1   37 1
   4    2    3 ar
   5    2   38 1
   6    3    4 ar
   7    3   39 1
   8    4    7 ar
   9    4   40 1
  10    5    7 ar
  11    5    6 1
  12    6    9 1
  13    6   10 1
  14    7    8 1
  15    8    9 2
  16    9   41 1
  17   10   11 1
  18   10   42 1
  19   10   43 1
  20   11   12 am
  21   11   13 2
  22   12   14 1
  23   12   15 1
  24   14   18 ar
  25   14   17 ar
  26   15   21 1
  27   15   22 1
  28   15   44 1
  29   16   17 ar
  30   16   20 ar
  31   16   45 1
  32   17   46 1
  33   18   19 ar
  34   18   47 1
  35   19   20 ar
  36   19   36 1
  37   20   48 1
  38   21   33 ar
  39   21   32 ar
  40   22   23 am
  41   22   24 2
  42   23   25 1
  43   23   49 1
  44   25   26 1
  45   25   29 1
  46   25   50 1
  47   26   27 1
  48   26   51 1
  49   26   52 1
  50   27   28 1
  51   27   53 1
  52   27   54 1
  53   28   29 1
  54   28   55 1
  55   28   56 1
  56   29   57 1
  57   29   58 1
  58   30   31 ar
  59   30   34 ar
  60   30   59 1
  61   31   32 ar
  62   31   60 1
  63   32   35 1
  64   33   34 ar
  65   33   61 1
  66   34   62 1
  67   35   63 1
  68   35   64 1
  69   35   65 1

#	End of record

