#	Name: ASD03730202
#	Creating user name:	WinNT
#	Creation time:	15. 06. 2019 20:44

#	Modifying user name:	WinNT
#	Modification time:	15. 06. 2019 20:44

#	Program:	/corina/corina34_cracker 3.40 0067  02.08.2006

@<TRIPOS>MOLECULE
ASD03730202
  46   50    0    0    0
SMALL
NO_CHARGES


@<TRIPOS>ATOM
   1 C1            -0.0184     1.5028     0.0103 C.2     
   2 C2             0.0021    -0.0041     0.0020 C.3     
   3 O3             1.0197     2.1211     0.0037 O.2     
   4 O4            -1.1898     2.1580     0.0194 O.3     
   5 O5             5.2363    -2.4820     1.3757 O.3     
   6 C6             5.5789    -1.1818     1.6011 C.ar    
   7 C7             4.5755    -0.3156     1.1732 C.ar    
   8 C8             3.4664    -1.1765     0.6324 C.3     
   9 C9             3.8140    -2.5726     1.1676 C.3     
  10 O10            7.9269     1.4311     2.8292 O.3     
  11 C11            6.8903     0.7209     2.3037 C.ar    
  12 C12            5.8802     1.5640     1.8573 C.ar    
  13 C13            6.3384     2.9854     2.1180 C.3     
  14 C14            7.8524     2.7912     2.3699 C.3     
  15 C15            4.7308     1.0482     1.2994 C.ar    
  16 C16            6.7322    -0.6536     2.1676 C.ar    
  17 N17            1.3897    -0.4735    -0.0138 N.am    
  18 C18            2.1129    -0.7211     1.0965 C.2     
  19 C19            3.4018    -1.1525    -0.8659 C.ar    
  20 C20            4.3028    -1.4566    -1.8619 C.ar    
  21 C21            3.9359    -1.3316    -3.1900 C.ar    
  22 C22            2.6627    -0.8999    -3.5148 C.ar    
  23 C23            1.7569    -0.5938    -2.5207 C.ar    
  24 C24            2.1171    -0.7175    -1.1811 C.ar    
  25 O25            1.7428    -0.6004     2.2452 O.2     
  26 C26           -1.1335     3.6089     0.0270 C.3     
  27 C27           -2.5551     4.1744     0.0369 C.3     
  28 H28           -0.4983    -0.3791     0.8948 H       
  29 H29           -0.5153    -0.3696    -0.8850 H       
  30 H30            3.5788    -3.3396     0.4297 H       
  31 H31            3.2970    -2.7666     2.1074 H       
  32 H32            6.1662     3.6164     1.2461 H       
  33 H33            5.8466     3.3979     2.9990 H       
  34 H34            8.2072     3.4782     3.1383 H       
  35 H35            8.4170     2.9184     1.4463 H       
  36 H36            3.9505     1.7134     0.9603 H       
  37 H37            7.5139    -1.3176     2.5059 H       
  38 H38            5.2965    -1.7934    -1.6061 H       
  39 H39            4.6423    -1.5701    -3.9713 H       
  40 H40            2.3765    -0.8022    -4.5516 H       
  41 H41            0.7648    -0.2564    -2.7822 H       
  42 H42           -0.6017     3.9472     0.9164 H       
  43 H43           -0.6102     3.9569    -0.8636 H       
  44 H44           -3.0869     3.8361    -0.8525 H       
  45 H45           -3.0784     3.8265     0.9275 H       
  46 H46           -2.5128     5.2636     0.0426 H       
@<TRIPOS>BOND
   1    1    2 1
   2    1    3 2
   3    1    4 1
   4    2   17 1
   5    2   28 1
   6    2   29 1
   7    4   26 1
   8    5    6 1
   9    5    9 1
  10    6    7 ar
  11    6   16 ar
  12    7    8 1
  13    7   15 ar
  14    8    9 1
  15    8   18 1
  16    8   19 1
  17    9   30 1
  18    9   31 1
  19   10   11 1
  20   10   14 1
  21   11   12 ar
  22   11   16 ar
  23   12   13 1
  24   12   15 ar
  25   13   14 1
  26   13   32 1
  27   13   33 1
  28   14   34 1
  29   14   35 1
  30   15   36 1
  31   16   37 1
  32   17   18 am
  33   17   24 1
  34   18   25 2
  35   19   20 ar
  36   19   24 ar
  37   20   21 ar
  38   20   38 1
  39   21   22 ar
  40   21   39 1
  41   22   23 ar
  42   22   40 1
  43   23   24 ar
  44   23   41 1
  45   26   27 1
  46   26   42 1
  47   26   43 1
  48   27   44 1
  49   27   45 1
  50   27   46 1

#	End of record

