#	Name: ASD01881950
#	Creating user name:	WinNT
#	Creation time:	15. 06. 2019 19:43

#	Modifying user name:	WinNT
#	Modification time:	15. 06. 2019 19:43

#	Program:	/corina/corina34_cracker 3.40 0067  02.08.2006

@<TRIPOS>MOLECULE
ASD01881950
  45   48    0    0    0
SMALL
NO_CHARGES


@<TRIPOS>ATOM
   1 N1            -0.0169     1.3986     0.0097 N.pl3   
   2 N2             0.0021    -0.0041     0.0020 N.2     
   3 N3             1.2208    -0.4154    -0.0118 N.2     
   4 C4             2.0688     0.6326    -0.0143 C.ar    
   5 C5             1.2957     1.8066    -0.0006 C.ar    
   6 C6             3.4667     0.7330    -0.0267 C.ar    
   7 C7             4.0612     1.9618    -0.0254 C.ar    
   8 C8             3.2961     3.1206    -0.0119 C.ar    
   9 C9             1.9211     3.0487     0.0005 C.ar    
  10 C10            5.5648     2.0620    -0.0383 C.3     
  11 O11            5.9506     3.4380    -0.0344 O.3     
  12 C12            7.3644     3.6453    -0.0459 C.3     
  13 C13            7.6598     5.1465    -0.0404 C.3     
  14 C14            9.1702     5.3692     0.0731 C.3     
  15 C15            9.4625     6.8718     0.0173 C.3     
  16 C16            8.8863     7.4450    -1.2811 C.3     
  17 C17            7.3869     7.1421    -1.3423 C.3     
  18 O18            7.1835     5.7303    -1.2546 O.3     
  19 C19           -1.2024     2.2592     0.0203 C.3     
  20 C20           -1.6077     2.5515     1.4664 C.3     
  21 C21           -2.7591     3.5333     1.6927 C.3     
  22 C22           -2.9701     2.0376     1.9359 C.3     
  23 Br23           4.5281    -0.8320    -0.0447 Br      
  24 H24            3.7828     4.0847    -0.0107 H       
  25 H25            1.3308     3.9531     0.0106 H       
  26 H26            5.9694     1.5687     0.8454 H       
  27 H27            5.9535     1.5783    -0.9344 H       
  28 H28            7.8063     3.1848     0.8377 H       
  29 H29            7.7904     3.1944    -0.9421 H       
  30 H30            7.1589     5.6124     0.8082 H       
  31 H31            9.5281     4.9634     1.0193 H       
  32 H32            9.6752     4.8690    -0.7532 H       
  33 H33            8.9986     7.3654     0.8713 H       
  34 H34           10.5399     7.0348     0.0413 H       
  35 H35            9.0412     8.5237    -1.3033 H       
  36 H36            9.3856     6.9867    -2.1347 H       
  37 H37            6.8824     7.6343    -0.5108 H       
  38 H38            6.9798     7.5103    -2.2840 H       
  39 H39           -0.9763     3.1955    -0.4900 H       
  40 H40           -2.0220     1.7551    -0.4919 H       
  41 H41           -0.7936     2.5548     2.1912 H       
  42 H42           -2.7027     4.1822     2.5667 H       
  43 H43           -3.2279     3.9710     0.8114 H       
  44 H44           -3.5778     1.4912     1.2146 H       
  45 H45           -3.0526     1.7025     2.9698 H       
@<TRIPOS>BOND
   1    1    2 1
   2    1    5 1
   3    1   19 1
   4    2    3 2
   5    3    4 1
   6    4    5 ar
   7    4    6 ar
   8    5    9 ar
   9    6    7 ar
  10    6   23 1
  11    7    8 ar
  12    7   10 1
  13    8    9 ar
  14    8   24 1
  15    9   25 1
  16   10   11 1
  17   10   26 1
  18   10   27 1
  19   11   12 1
  20   12   13 1
  21   12   28 1
  22   12   29 1
  23   13   14 1
  24   13   18 1
  25   13   30 1
  26   14   15 1
  27   14   31 1
  28   14   32 1
  29   15   16 1
  30   15   33 1
  31   15   34 1
  32   16   17 1
  33   16   35 1
  34   16   36 1
  35   17   18 1
  36   17   37 1
  37   17   38 1
  38   19   20 1
  39   19   39 1
  40   19   40 1
  41   20   21 1
  42   20   22 1
  43   20   41 1
  44   21   22 1
  45   21   42 1
  46   21   43 1
  47   22   44 1
  48   22   45 1

#	End of record

