#	Name: ASD01884753
#	Creating user name:	WinNT
#	Creation time:	15. 06. 2019 19:48

#	Modifying user name:	WinNT
#	Modification time:	15. 06. 2019 19:48

#	Program:	/corina/corina34_cracker 3.40 0067  02.08.2006

@<TRIPOS>MOLECULE
ASD01884753
  38   40    0    0    0
SMALL
NO_CHARGES


@<TRIPOS>ATOM
   1 N1            -0.0158     1.3120     0.0093 N.2     
   2 C2             0.0021    -0.0041     0.0020 C.2     
   3 C3             1.2359    -0.6831    -0.0134 C.2     
   4 C4             2.4013     0.0582    -0.0206 C.2     
   5 N5             2.3193     1.4080    -0.0125 N.am    
   6 C6             1.1190     2.0153     0.0022 C.2     
   7 O7             1.0663     3.2337     0.0092 O.2     
   8 C8             3.5434     2.2128    -0.0199 C.3     
   9 C9             1.2829    -2.1666    -0.0213 C.ar    
  10 C10            3.9496     2.4964    -1.4431 C.ar    
  11 C11            3.4783     3.6268    -2.0843 C.ar    
  12 C12            3.8508     3.8869    -3.3898 C.ar    
  13 C13            4.6950     3.0168    -4.0541 C.ar    
  14 C14            5.1670     1.8869    -3.4127 C.ar    
  15 C15            4.7980     1.6291    -2.1057 C.ar    
  16 C16            0.8063    -2.8860     1.0728 C.ar    
  17 C17            0.8508    -4.2646     1.0624 C.ar    
  18 C18            1.3702    -4.9353    -0.0363 C.ar    
  19 C19            1.8458    -4.2213    -1.1276 C.ar    
  20 C20            1.7985    -2.8428    -1.1253 C.ar    
  21 O21            1.4137    -6.2936    -0.0434 O.3     
  22 C22            1.9608    -6.9191    -1.2059 C.3     
  23 H23           -0.9239    -0.5599     0.0082 H       
  24 H24            3.3633    -0.4326    -0.0320 H       
  25 H25            3.3631     3.1533     0.5007 H       
  26 H26            4.3408     1.6660     0.4834 H       
  27 H27            2.8188     4.3065    -1.5653 H       
  28 H28            3.4821     4.7697    -3.8909 H       
  29 H29            4.9855     3.2197    -5.0743 H       
  30 H30            5.8263     1.2070    -3.9318 H       
  31 H31            5.1667     0.7463    -1.6045 H       
  32 H32            0.4027    -2.3647     1.9282 H       
  33 H33            0.4816    -4.8227     1.9100 H       
  34 H34            2.2493    -4.7458    -1.9811 H       
  35 H35            2.1686    -2.2878    -1.9747 H       
  36 H36            1.3718    -6.6404    -2.0797 H       
  37 H37            2.9915    -6.5924    -1.3433 H       
  38 H38            1.9363    -8.0017    -1.0816 H       
@<TRIPOS>BOND
   1    1    2 2
   2    1    6 1
   3    2    3 1
   4    2   23 1
   5    3    4 2
   6    3    9 1
   7    4    5 1
   8    4   24 1
   9    5    6 am
  10    5    8 1
  11    6    7 2
  12    8   10 1
  13    8   25 1
  14    8   26 1
  15    9   16 ar
  16    9   20 ar
  17   10   11 ar
  18   10   15 ar
  19   11   12 ar
  20   11   27 1
  21   12   13 ar
  22   12   28 1
  23   13   14 ar
  24   13   29 1
  25   14   15 ar
  26   14   30 1
  27   15   31 1
  28   16   17 ar
  29   16   32 1
  30   17   18 ar
  31   17   33 1
  32   18   19 ar
  33   18   21 1
  34   19   20 ar
  35   19   34 1
  36   20   35 1
  37   21   22 1
  38   22   36 1
  39   22   37 1
  40   22   38 1

#	End of record

