#	Name: ASD01917219
#	Creating user name:	WinNT
#	Creation time:	15. 06. 2019 20:08

#	Modifying user name:	WinNT
#	Modification time:	15. 06. 2019 20:08

#	Program:	/corina/corina34_cracker 3.40 0067  02.08.2006

@<TRIPOS>MOLECULE
ASD01917219
  44   47    0    0    0
SMALL
NO_CHARGES


@<TRIPOS>ATOM
   1 N1            -0.0165     1.3656     0.0096 N.pl3   
   2 C2             0.0021    -0.0041     0.0020 C.2     
   3 C3             1.2695    -0.7654    -0.0218 C.2     
   4 N4             2.2386    -0.3078     0.8092 N.am    
   5 C5             1.8899     0.6506     1.8462 C.3     
   6 C6             1.8922     2.1003     1.3636 C.3     
   7 C7             1.1884     2.1931     0.0025 C.3     
   8 N8            -1.3526     1.7651     0.0303 N.2     
   9 C9            -2.1134     0.6915     0.0384 C.2     
  10 C10           -1.2909    -0.4429     0.0173 C.2     
  11 O11            1.4315    -1.7356    -0.7372 O.2     
  12 C12            3.6200    -0.7736     0.6644 C.3     
  13 C13            4.3710     0.1486    -0.2981 C.3     
  14 C14            5.8678    -0.1013    -0.4926 C.3     
  15 C15            4.8814    -0.4598    -1.6058 C.3     
  16 O16           -3.4733     0.6841     0.0604 O.3     
  17 C17           -4.1288     1.9537     0.0755 C.3     
  18 C18           -5.6215     1.7481     0.0990 C.ar    
  19 C19           -6.2868     1.6496     1.3067 C.ar    
  20 C20           -7.6560     1.4609     1.3282 C.ar    
  21 C21           -8.3601     1.3713     0.1420 C.ar    
  22 C22           -7.6950     1.4707    -1.0658 C.ar    
  23 C23           -6.3263     1.6637    -1.0872 C.ar    
  24 H24            0.8960     0.4101     2.2236 H       
  25 H25            2.6035     0.5542     2.6645 H       
  26 H26            1.3670     2.7241     2.0868 H       
  27 H27            2.9205     2.4480     1.2646 H       
  28 H28            1.8633     1.8437    -0.7788 H       
  29 H29            0.9146     3.2298    -0.1938 H       
  30 H30           -1.6184    -1.4720     0.0175 H       
  31 H31            4.1114    -0.7613     1.6373 H       
  32 H32            3.6213    -1.7896     0.2696 H       
  33 H33            4.0256     1.1821    -0.3245 H       
  34 H34            6.5072     0.7678    -0.6474 H       
  35 H35            6.3176    -0.9227     0.0651 H       
  36 H36            4.6822    -1.5171    -1.7805 H       
  37 H37            4.8718     0.1734    -2.4930 H       
  38 H38           -3.8246     2.5092     0.9627 H       
  39 H39           -3.8534     2.5155    -0.8171 H       
  40 H40           -5.7367     1.7196     2.2335 H       
  41 H41           -8.1757     1.3832     2.2718 H       
  42 H42           -9.4297     1.2232     0.1588 H       
  43 H43           -8.2450     1.4003    -1.9926 H       
  44 H44           -5.8072     1.7451    -2.0308 H       
@<TRIPOS>BOND
   1    1    2 1
   2    1    7 1
   3    1    8 1
   4    2    3 1
   5    2   10 2
   6    3    4 am
   7    3   11 2
   8    4    5 1
   9    4   12 1
  10    5    6 1
  11    5   24 1
  12    5   25 1
  13    6    7 1
  14    6   26 1
  15    6   27 1
  16    7   28 1
  17    7   29 1
  18    8    9 2
  19    9   10 1
  20    9   16 1
  21   10   30 1
  22   12   13 1
  23   12   31 1
  24   12   32 1
  25   13   14 1
  26   13   15 1
  27   13   33 1
  28   14   15 1
  29   14   34 1
  30   14   35 1
  31   15   36 1
  32   15   37 1
  33   16   17 1
  34   17   18 1
  35   17   38 1
  36   17   39 1
  37   18   19 ar
  38   18   23 ar
  39   19   20 ar
  40   19   40 1
  41   20   21 ar
  42   20   41 1
  43   21   22 ar
  44   21   42 1
  45   22   23 ar
  46   22   43 1
  47   23   44 1

#	End of record

