#	Name: ASD01880611
#	Creating user name:	WinNT
#	Creation time:	15. 06. 2019 19:41

#	Modifying user name:	WinNT
#	Modification time:	15. 06. 2019 19:41

#	Program:	/corina/corina34_cracker 3.40 0067  02.08.2006

@<TRIPOS>MOLECULE
ASD01880611
  54   57    0    0    0
SMALL
NO_CHARGES


@<TRIPOS>ATOM
   1 N1            -0.0162     1.3122     0.0181 N.ar    
   2 C2             0.0026    -0.0050     0.0041 C.ar    
   3 N3             1.1319    -0.6840    -0.0187 N.ar    
   4 C4             2.3030    -0.0615    -0.0289 C.ar    
   5 C5             2.3317     1.3208    -0.0153 C.ar    
   6 C6             1.1174     2.0081     0.0092 C.ar    
   7 C7             3.6413     2.0664    -0.0257 C.3     
   8 O8             4.0988     2.2068    -1.3721 O.3     
   9 C9             5.2737     2.8599    -1.5587 C.ar    
  10 C10            5.7770     3.0317    -2.8446 C.ar    
  11 C11            6.9653     3.6929    -3.0319 C.ar    
  12 C12            7.6755     4.1963    -1.9369 C.ar    
  13 C13            7.1654     4.0213    -0.6476 C.ar    
  14 C14            5.9704     3.3615    -0.4657 C.ar    
  15 C15            7.7705     4.0423    -4.2587 C.3     
  16 N16            8.9562     4.7617    -3.7793 N.am    
  17 C17            8.8973     4.8483    -2.4393 C.2     
  18 O18            9.7334     5.3883    -1.7410 O.2     
  19 Br19           3.9134    -1.0521    -0.0609 Br      
  20 N20            1.0930     3.3933     0.0231 N.3     
  21 C21            0.5148     3.8984    -1.1531 C.3     
  22 C22            0.6566     5.4335    -1.2379 C.3     
  23 C23           -0.3303     6.0736    -0.2956 C.3     
  24 O24            0.2215     6.3133     1.0153 O.3     
  25 C25            1.0490     5.2667     1.5554 C.3     
  26 C26            0.4837     3.8991     1.2687 C.3     
  27 C27           10.8079     7.2918    -5.9090 C.3     
  28 C28            9.6885     6.7327    -5.0284 C.3     
  29 C29           10.0279     5.2971    -4.6224 C.3     
  30 H30           -0.9335    -0.5435     0.0118 H       
  31 H31            3.5009     3.0534     0.4151 H       
  32 H32            4.3798     1.5117     0.5531 H       
  33 H33            5.2335     2.6450    -3.6940 H       
  34 H34            7.7061     4.4057     0.2047 H       
  35 H35            5.5765     3.2269     0.5309 H       
  36 H36            8.0695     3.1340    -4.7819 H       
  37 H37            7.1865     4.6816    -4.9206 H       
  38 H38            1.0070     3.4469    -2.0145 H       
  39 H39           -0.5432     3.6368    -1.1710 H       
  40 H40            1.6693     5.7219    -0.9561 H       
  41 H41            0.4533     5.7624    -2.2570 H       
  42 H42           -0.6551     7.0239    -0.7192 H       
  43 H43           -1.1973     5.4203    -0.1978 H       
  44 H44            2.0439     5.3387     1.1161 H       
  45 H45            1.1287     5.3987     2.6344 H       
  46 H46           -0.5972     3.9678     1.1462 H       
  47 H47            0.7199     3.2251     2.0921 H       
  48 H48           10.9093     6.6758    -6.8025 H       
  49 H49           10.5661     8.3145    -6.1983 H       
  50 H50           11.7457     7.2834    -5.3535 H       
  51 H51            9.5871     7.3486    -4.1349 H       
  52 H52            8.7507     6.7411    -5.5839 H       
  53 H53           10.9657     5.2887    -4.0669 H       
  54 H54           10.1294     4.6811    -5.5159 H       
@<TRIPOS>BOND
   1    1    2 ar
   2    1    6 ar
   3    2    3 ar
   4    2   30 1
   5    3    4 ar
   6    4    5 ar
   7    4   19 1
   8    5    6 ar
   9    5    7 1
  10    6   20 1
  11    7    8 1
  12    7   31 1
  13    7   32 1
  14    8    9 1
  15    9   10 ar
  16    9   14 ar
  17   10   11 ar
  18   10   33 1
  19   11   12 ar
  20   11   15 1
  21   12   13 ar
  22   12   17 1
  23   13   14 ar
  24   13   34 1
  25   14   35 1
  26   15   16 1
  27   15   36 1
  28   15   37 1
  29   16   17 am
  30   16   29 1
  31   17   18 2
  32   20   21 1
  33   20   26 1
  34   21   22 1
  35   21   38 1
  36   21   39 1
  37   22   23 1
  38   22   40 1
  39   22   41 1
  40   23   24 1
  41   23   42 1
  42   23   43 1
  43   24   25 1
  44   25   26 1
  45   25   44 1
  46   25   45 1
  47   26   46 1
  48   26   47 1
  49   27   28 1
  50   27   48 1
  51   27   49 1
  52   27   50 1
  53   28   29 1
  54   28   51 1
  55   28   52 1
  56   29   53 1
  57   29   54 1

#	End of record

