#	Name: ASD01913207
#	Creating user name:	WinNT
#	Creation time:	15. 06. 2019 20:01

#	Modifying user name:	WinNT
#	Modification time:	15. 06. 2019 20:01

#	Program:	/corina/corina34_cracker 3.40 0067  02.08.2006

@<TRIPOS>MOLECULE
ASD01913207
  51   54    0    0    0
SMALL
NO_CHARGES


@<TRIPOS>ATOM
   1 C1             0.0760     1.2452     1.0381 C.ar    
   2 C2             0.0687    -0.1057     0.7406 C.ar    
   3 C3             1.2721    -0.7676     0.5842 C.ar    
   4 C4             2.4527    -0.0485     0.7324 C.ar    
   5 C5             2.3803     1.3048     1.0311 C.ar    
   6 N6             1.2125     1.9003     1.1726 N.ar    
   7 N7            -0.4572    -2.3947     0.2417 N.am    
   8 C8            -1.0549    -1.0873     0.5346 C.3     
   9 C9             0.9985    -2.2131     0.2687 C.3     
  10 C10            3.6488     2.1015     1.1956 C.3     
  11 C11           -1.1187    -3.5428    -0.0046 C.2     
  12 C12           -2.5890    -3.5892     0.1209 C.ar    
  13 C13           -3.2595    -4.8072     0.0170 C.ar    
  14 C14           -4.6470    -4.8447     0.1368 C.ar    
  15 C15           -5.3596    -3.6552     0.3612 C.ar    
  16 C16           -4.6818    -2.4489     0.4624 C.ar    
  17 C17           -3.3088    -2.4122     0.3497 C.ar    
  18 O18           -0.5046    -4.5404    -0.3301 O.2     
  19 C19           -5.3440    -6.0911     0.0310 C.1     
  20 C20           -5.9155    -7.1129    -0.0558 C.1     
  21 C21           -6.6126    -8.3593    -0.1615 C.ar    
  22 C22           -8.0047    -8.3883    -0.0402 C.ar    
  23 C23           -8.6624    -9.6000    -0.1449 C.ar    
  24 C24           -7.9105   -10.7463    -0.3675 C.ar    
  25 C25           -6.5358   -10.6466    -0.4777 C.ar    
  26 N26           -5.9314    -9.4803    -0.3799 N.ar    
  27 O27           -6.7103    -3.6858     0.4786 O.3     
  28 C28           -7.3702    -2.4389     0.7060 C.3     
  29 O29            3.6575    -0.6606     0.5875 O.3     
  30 C30            4.2219    -0.6792    -0.7252 C.3     
  31 H31           -0.8601     1.7704     1.1574 H       
  32 H32           -1.6595    -1.1519     1.4393 H       
  33 H33           -1.6750    -0.7685    -0.3032 H       
  34 H34            1.4205    -2.4653    -0.7042 H       
  35 H35            1.4360    -2.8487     1.0385 H       
  36 H36            3.9459     2.5147     0.2317 H       
  37 H37            3.4787     2.9139     1.9022 H       
  38 H38            4.4394     1.4523     1.5718 H       
  39 H39           -2.7055    -5.7180    -0.1560 H       
  40 H40           -5.2319    -1.5356     0.6346 H       
  41 H41           -2.7870    -1.4704     0.4343 H       
  42 H42           -8.5586    -7.4775     0.1331 H       
  43 H43           -9.7373    -9.6540    -0.0551 H       
  44 H44           -8.3955   -11.7074    -0.4534 H       
  45 H45           -5.9497   -11.5371    -0.6508 H       
  46 H46           -8.4449    -2.6048     0.7803 H       
  47 H47           -7.0055    -1.9988     1.6341 H       
  48 H48           -7.1635    -1.7619    -0.1229 H       
  49 H49            5.1810    -1.1966    -0.7009 H       
  50 H50            3.5458    -1.1989    -1.4041 H       
  51 H51            4.3695     0.3436    -1.0718 H       
@<TRIPOS>BOND
   1    1    2 ar
   2    1    6 ar
   3    1   31 1
   4    2    3 ar
   5    2    8 1
   6    3    4 ar
   7    3    9 1
   8    4    5 ar
   9    4   29 1
  10    5    6 ar
  11    5   10 1
  12    7    8 1
  13    7    9 1
  14    7   11 am
  15    8   32 1
  16    8   33 1
  17    9   34 1
  18    9   35 1
  19   10   36 1
  20   10   37 1
  21   10   38 1
  22   11   12 1
  23   11   18 2
  24   12   13 ar
  25   12   17 ar
  26   13   14 ar
  27   13   39 1
  28   14   15 ar
  29   14   19 1
  30   15   16 ar
  31   15   27 1
  32   16   17 ar
  33   16   40 1
  34   17   41 1
  35   19   20 3
  36   20   21 1
  37   21   22 ar
  38   21   26 ar
  39   22   23 ar
  40   22   42 1
  41   23   24 ar
  42   23   43 1
  43   24   25 ar
  44   24   44 1
  45   25   26 ar
  46   25   45 1
  47   27   28 1
  48   28   46 1
  49   28   47 1
  50   28   48 1
  51   29   30 1
  52   30   49 1
  53   30   50 1
  54   30   51 1

#	End of record

