#	Name: ASD04880380
#	Creating user name:	WinNT
#	Creation time:	15. 06. 2019 20:53

#	Modifying user name:	WinNT
#	Modification time:	15. 06. 2019 20:53

#	Program:	/corina/corina34_cracker 3.40 0067  02.08.2006

@<TRIPOS>MOLECULE
ASD04880380
  47   49    0    0    0
SMALL
NO_CHARGES


@<TRIPOS>ATOM
   1 C1            -0.0056     1.3702     0.2994 C.ar    
   2 C2             0.0099    -0.0225     0.2658 C.ar    
   3 C3            -1.1790    -0.7261     0.2179 C.ar    
   4 C4            -2.3946    -0.0372     0.2038 C.ar    
   5 C5            -2.4023     1.3597     0.2382 C.ar    
   6 C6            -1.2124     2.0544     0.2912 C.ar    
   7 C7            -3.6656    -0.7821     0.1523 C.2     
   8 N8            -3.7743    -2.0656     0.1177 N.2     
   9 N9            -5.0892    -2.5244     0.0722 N.am    
  10 C10           -5.9976    -1.3667     0.0771 C.3     
  11 C11           -5.0427    -0.1581     0.1384 C.3     
  12 C12           -5.4673    -3.8174     0.0297 C.2     
  13 O13           -6.6461    -4.1087     0.0958 O.2     
  14 C14           -4.4501    -4.8804    -0.0972 C.ar    
  15 C15           -3.1116    -4.5470    -0.3171 C.ar    
  16 C16           -4.8220    -6.2226     0.0080 C.ar    
  17 C17           -3.8684    -7.2106    -0.1113 C.ar    
  18 C18           -2.5421    -6.8742    -0.3353 C.ar    
  19 C19           -2.1664    -5.5432    -0.4348 C.ar    
  20 F20           -1.6114    -7.8467    -0.4510 F       
  21 O21            1.1647     2.0602     0.3460 O.3     
  22 O22            1.1948    -0.6899     0.2796 O.3     
  23 C23            1.1359    -2.1172     0.2433 C.3     
  24 C24            1.0763     3.4861     0.3786 C.3     
  25 C25           -6.8349    -1.3339    -1.2030 C.3     
  26 C26           -6.9003    -1.3961     1.3120 C.3     
  27 H27           -1.1683    -1.8057     0.1911 H       
  28 H28           -3.3403     1.8950     0.2271 H       
  29 H29           -1.2197     3.1341     0.3178 H       
  30 H30           -5.2158     0.4203     1.0460 H       
  31 H31           -5.1630     0.4694    -0.7447 H       
  32 H32           -2.8180    -3.5106    -0.3952 H       
  33 H33           -5.8548    -6.4857     0.1828 H       
  34 H34           -4.1548    -8.2488    -0.0298 H       
  35 H35           -1.1319    -5.2868    -0.6097 H       
  36 H36            0.5851    -2.4803     1.1109 H       
  37 H37            0.6303    -2.4369    -0.6680 H       
  38 H38            2.1474    -2.5230     0.2591 H       
  39 H39            0.5637     3.8389    -0.5163 H       
  40 H40            0.5185     3.7954     1.2625 H       
  41 H41            2.0791     3.9116     0.4145 H       
  42 H42           -7.4458    -2.2347    -1.2608 H       
  43 H43           -7.4815    -0.4565    -1.1918 H       
  44 H44           -6.1738    -1.2870    -2.0684 H       
  45 H45           -6.2853    -1.3928     2.2119 H       
  46 H46           -7.5467    -0.5183     1.3105 H       
  47 H47           -7.5123    -2.2979     1.2934 H       
@<TRIPOS>BOND
   1    1    2 ar
   2    1   21 1
   3    1    6 ar
   4    2    3 ar
   5    2   22 1
   6    3    4 ar
   7    3   27 1
   8    4    5 ar
   9    4    7 1
  10    5    6 ar
  11    5   28 1
  12    6   29 1
  13    7    8 2
  14    7   11 1
  15    8    9 1
  16    9   10 1
  17    9   12 am
  18   10   11 1
  19   10   25 1
  20   10   26 1
  21   11   30 1
  22   11   31 1
  23   12   13 2
  24   12   14 1
  25   14   15 ar
  26   14   16 ar
  27   15   19 ar
  28   15   32 1
  29   16   17 ar
  30   16   33 1
  31   17   18 ar
  32   17   34 1
  33   18   19 ar
  34   18   20 1
  35   19   35 1
  36   21   24 1
  37   22   23 1
  38   23   36 1
  39   23   37 1
  40   23   38 1
  41   24   39 1
  42   24   40 1
  43   24   41 1
  44   25   42 1
  45   25   43 1
  46   25   44 1
  47   26   45 1
  48   26   46 1
  49   26   47 1

#	End of record

