#	Name: ASD00100157
#	Creating user name:	WinNT
#	Creation time:	15. 06. 2019 18:30

#	Modifying user name:	WinNT
#	Modification time:	15. 06. 2019 18:30

#	Program:	/corina/corina34_cracker 3.40 0067  02.08.2006

@<TRIPOS>MOLECULE
ASD00100157
  62   65    0    0    0
SMALL
NO_CHARGES


@<TRIPOS>ATOM
   1 C1            -2.0045     4.0163    -0.8843 C.ar    
   2 C2            -0.8243     4.7283    -0.9892 C.ar    
   3 C3            -0.8154     5.9646    -1.6075 C.ar    
   4 C4            -1.9868     6.4887    -2.1214 C.ar    
   5 C5            -3.1669     5.7764    -2.0173 C.ar    
   6 C6            -3.1760     4.5407    -1.3977 C.ar    
   7 S7            -2.0144     2.4372    -0.1026 S.o2    
   8 O8            -3.1901     1.7758    -0.5491 O.2     
   9 O9            -0.7095     1.8994    -0.2682 O.2     
  10 N10           -2.2111     2.6953     1.5213 N.am    
  11 C11           -1.9774     7.8370    -2.7946 C.3     
  12 C12           -2.4471     7.6871    -4.2430 C.3     
  13 C13           -2.9179     8.7859    -2.0491 C.3     
  14 C14           -1.2301     3.3786     2.2438 C.ar    
  15 C15           -1.5927     4.3895     3.1216 C.ar    
  16 C16           -0.6112     5.0676     3.8396 C.ar    
  17 C17            0.7305     4.7268     3.6721 C.ar    
  18 C18            1.0832     3.7196     2.7966 C.ar    
  19 C19            0.1092     3.0418     2.0877 C.ar    
  20 C20           -2.2073     7.5469     5.9176 C.2     
  21 N21           -2.2533     6.5788     5.0352 N.2     
  22 C22           -0.9917     6.1501     4.7797 C.2     
  23 C23           -0.1403     6.8858     5.5364 C.2     
  24 N24           -0.9079     7.7689     6.2559 N.pl3   
  25 C25           -0.4182     8.7664     7.2106 C.3     
  26 C26           -0.4734     8.1970     8.6048 C.ar    
  27 C27            0.5547     7.3868     9.0651 C.ar    
  28 C28            0.5010     6.8641    10.3488 C.ar    
  29 C29           -0.5756     7.1514    11.1659 C.ar    
  30 C30           -1.5988     7.9585    10.7047 C.ar    
  31 C31           -1.5446     8.4858     9.4275 C.ar    
  32 O32            1.6123     7.1054     8.2594 O.3     
  33 C33            2.6338     6.2646     8.7995 C.3     
  34 N34           -3.2997     8.2341     6.4183 N.pl3   
  35 H35            0.0909     4.3188    -0.5877 H       
  36 H36            0.1065     6.5211    -1.6888 H       
  37 H37           -4.0821     6.1860    -2.4185 H       
  38 H38           -4.0980     3.9843    -1.3161 H       
  39 H39           -3.0076     2.3721     1.9707 H       
  40 H40           -0.9659     8.2429    -2.7809 H       
  41 H41           -3.4586     7.2811    -4.2568 H       
  42 H42           -2.4403     8.6622    -4.7300 H       
  43 H43           -1.7770     7.0110    -4.7742 H       
  44 H44           -3.9294     8.3799    -2.0628 H       
  45 H45           -2.5833     8.8927    -1.0172 H       
  46 H46           -2.9111     9.7610    -2.5360 H       
  47 H47           -2.6332     4.6501     3.2476 H       
  48 H48            1.4941     5.2513     4.2274 H       
  49 H49            2.1230     3.4575     2.6682 H       
  50 H50            0.3901     2.2516     1.4073 H       
  51 H51            0.9355     6.7950     5.5672 H       
  52 H52            0.6110     9.0290     6.9658 H       
  53 H53           -1.0431     9.6579     7.1572 H       
  54 H54            1.2997     6.2330    10.7093 H       
  55 H55           -0.6179     6.7447    12.1655 H       
  56 H56           -2.4398     8.1813    11.3447 H       
  57 H57           -2.3429     9.1200     9.0712 H       
  58 H58            3.0584     6.7333     9.6872 H       
  59 H59            2.2052     5.2991     9.0682 H       
  60 H60            3.4167     6.1201     8.0551 H       
  61 H61           -4.1980     7.9600     6.1758 H       
  62 H62           -3.1669     8.9899     7.0117 H       
@<TRIPOS>BOND
   1    1    2 ar
   2    1    6 ar
   3    1    7 1
   4    2    3 ar
   5    2   35 1
   6    3    4 ar
   7    3   36 1
   8    4    5 ar
   9    4   11 1
  10    5    6 ar
  11    5   37 1
  12    6   38 1
  13    7    8 2
  14    7    9 2
  15    7   10 am
  16   10   14 1
  17   10   39 1
  18   11   12 1
  19   11   13 1
  20   11   40 1
  21   12   41 1
  22   12   42 1
  23   12   43 1
  24   13   44 1
  25   13   45 1
  26   13   46 1
  27   14   15 ar
  28   14   19 ar
  29   15   16 ar
  30   15   47 1
  31   16   17 ar
  32   16   22 1
  33   17   18 ar
  34   17   48 1
  35   18   19 ar
  36   18   49 1
  37   19   50 1
  38   20   21 2
  39   20   24 1
  40   20   34 1
  41   21   22 1
  42   22   23 2
  43   23   24 1
  44   23   51 1
  45   24   25 1
  46   25   26 1
  47   25   52 1
  48   25   53 1
  49   26   27 ar
  50   26   31 ar
  51   27   28 ar
  52   27   32 1
  53   28   29 ar
  54   28   54 1
  55   29   30 ar
  56   29   55 1
  57   30   31 ar
  58   30   56 1
  59   31   57 1
  60   32   33 1
  61   33   58 1
  62   33   59 1
  63   33   60 1
  64   34   61 1
  65   34   62 1

#	End of record

