#	Name: ASD04880073
#	Creating user name:	WinNT
#	Creation time:	15. 06. 2019 20:52

#	Modifying user name:	WinNT
#	Modification time:	15. 06. 2019 20:52

#	Program:	/corina/corina34_cracker 3.40 0067  02.08.2006

@<TRIPOS>MOLECULE
ASD04880073
  45   47    0    0    0
SMALL
NO_CHARGES


@<TRIPOS>ATOM
   1 C1            -0.0144     1.2122     0.0087 C.2     
   2 O2             0.0270    -0.0033     0.0300 O.2     
   3 N3             1.1283     1.9246    -0.0472 N.am    
   4 N4             1.2148     3.3081    -0.1880 N.2     
   5 C5             2.4212     3.7599    -0.2163 C.2     
   6 C6             3.3943     2.6103    -0.0835 C.3     
   7 C7             2.4883     1.3689     0.0368 C.3     
   8 C8             2.7951     5.1790    -0.3568 C.ar    
   9 C9             1.8030     6.1567    -0.4722 C.ar    
  10 C10            2.1591     7.4855    -0.6038 C.ar    
  11 C11            3.5046     7.8480    -0.6213 C.ar    
  12 C12            4.4893     6.8781    -0.5073 C.ar    
  13 C13            4.1416     5.5504    -0.3693 C.ar    
  14 O14            3.8527     9.1557    -0.7508 O.3     
  15 C15            5.2495     9.4572    -0.7612 C.3     
  16 O16            1.1964     8.4394    -0.7167 O.3     
  17 C17           -0.1620     7.9963    -0.6917 C.3     
  18 C18           -1.3148     1.9060     0.0380 C.ar    
  19 C19           -2.5045     1.1722    -0.0463 C.ar    
  20 C20           -3.7200     1.8286    -0.0184 C.ar    
  21 C21           -3.7603     3.2139     0.0927 C.ar    
  22 C22           -2.5803     3.9436     0.1760 C.ar    
  23 C23           -1.3643     3.2980     0.1557 C.ar    
  24 O24           -4.9563     3.8561     0.1194 O.3     
  25 C25           -4.9256     5.2801     0.2351 C.3     
  26 F26           -4.8698     1.1240    -0.0995 F       
  27 F27           -2.4638    -0.1738    -0.1551 F       
  28 H28            4.0279     2.5416    -0.9677 H       
  29 H29            4.0010     2.7248     0.8148 H       
  30 H30            2.6410     0.8716     0.9947 H       
  31 H31            2.6730     0.6803    -0.7877 H       
  32 H32            0.7606     5.8745    -0.4589 H       
  33 H33            5.5308     7.1635    -0.5220 H       
  34 H34            4.9104     4.7977    -0.2755 H       
  35 H35            5.6998     9.1255     0.1744 H       
  36 H36            5.7259     8.9432    -1.5960 H       
  37 H37            5.3882    10.5328    -0.8700 H       
  38 H38           -0.8261     8.8550    -0.7903 H       
  39 H39           -0.3346     7.3068    -1.5180 H       
  40 H40           -0.3614     7.4893     0.2524 H       
  41 H41           -2.6174     5.0196     0.2614 H       
  42 H42           -0.4492     3.8672     0.2258 H       
  43 H43           -4.4228     5.5586     1.1613 H       
  44 H44           -4.3856     5.7019    -0.6125 H       
  45 H45           -5.9450     5.6659     0.2449 H       
@<TRIPOS>BOND
   1    1    2 2
   2    1    3 am
   3    1   18 1
   4    3    4 1
   5    3    7 1
   6    4    5 2
   7    5    6 1
   8    5    8 1
   9    6    7 1
  10    6   28 1
  11    6   29 1
  12    7   30 1
  13    7   31 1
  14    8    9 ar
  15    8   13 ar
  16    9   10 ar
  17    9   32 1
  18   10   11 ar
  19   10   16 1
  20   11   12 ar
  21   11   14 1
  22   12   13 ar
  23   12   33 1
  24   13   34 1
  25   14   15 1
  26   15   35 1
  27   15   36 1
  28   15   37 1
  29   16   17 1
  30   17   38 1
  31   17   39 1
  32   17   40 1
  33   18   19 ar
  34   18   23 ar
  35   19   20 ar
  36   19   27 1
  37   20   21 ar
  38   20   26 1
  39   21   22 ar
  40   21   24 1
  41   22   23 ar
  42   22   41 1
  43   23   42 1
  44   24   25 1
  45   25   43 1
  46   25   44 1
  47   25   45 1

#	End of record

