#	Name: ASD01816015
#	Creating user name:	WinNT
#	Creation time:	15. 06. 2019 19:34

#	Modifying user name:	WinNT
#	Modification time:	15. 06. 2019 19:34

#	Program:	/corina/corina34_cracker 3.40 0067  02.08.2006

@<TRIPOS>MOLECULE
ASD01816015
  54   59    0    0    0
SMALL
NO_CHARGES


@<TRIPOS>ATOM
   1 C1             0.1443     1.7398     0.6320 C.ar    
   2 C2             0.0325     0.3589     0.6196 C.ar    
   3 C3             1.1415    -0.4343     0.4097 C.ar    
   4 C4             2.3869     0.1493     0.2075 C.ar    
   5 C5             2.4970     1.5496     0.2202 C.ar    
   6 C6             1.3715     2.3387     0.4333 C.ar    
   7 N7             3.5050    -0.6419    -0.0034 N.pl3   
   8 C8             4.7334    -0.1330    -0.2044 C.2     
   9 C9             4.9611     1.2206    -0.2136 C.2     
  10 C10            3.8279     2.1485     0.0034 C.2     
  11 C11            6.1270     2.0798    -0.3964 C.2     
  12 N12            5.6790     3.3495    -0.2908 N.am    
  13 N13            4.3024     3.3599    -0.0520 N.2     
  14 C14            6.4802     4.4928    -0.4038 C.ar    
  15 O15            7.2755     1.7227    -0.6026 O.2     
  16 C16            3.3488    -2.0322    -0.0069 C.ar    
  17 C17            6.7587     5.0266    -1.6549 C.ar    
  18 C18            7.5492     6.1541    -1.7633 C.ar    
  19 C19            8.0642     6.7522    -0.6277 C.ar    
  20 C20            7.7899     6.2246     0.6206 C.ar    
  21 C21            6.9941     5.0994     0.7373 C.ar    
  22 F22            6.7259     4.5838     1.9569 F       
  23 C23            3.4959    -2.7522     1.1720 C.ar    
  24 C24            3.0406    -2.6949    -1.1879 C.ar    
  25 C25            2.8866    -4.0675    -1.1878 C.ar    
  26 C26            3.0389    -4.7817    -0.0137 C.ar    
  27 C27            3.3406    -4.1242     1.1652 C.ar    
  28 C28            3.8251    -2.0367     2.4569 C.3     
  29 C29            3.7944    -3.0179     3.6003 C.ar    
  30 C30            4.9549    -3.6583     3.9928 C.ar    
  31 C31            4.9268    -4.5584     5.0416 C.ar    
  32 C32            3.7383    -4.8176     5.6982 C.ar    
  33 C33            2.5780    -4.1765     5.3063 C.ar    
  34 C34            2.6069    -3.2733     4.2603 C.ar    
  35 H35           -0.7325     2.3494     0.7934 H       
  36 H36           -0.9321    -0.1010     0.7761 H       
  37 H37            1.0422    -1.5097     0.4029 H       
  38 H38            1.4575     3.4152     0.4424 H       
  39 H39            5.5625    -0.8069    -0.3624 H       
  40 H40            6.3578     4.5603    -2.5428 H       
  41 H41            7.7657     6.5691    -2.7365 H       
  42 H42            8.6825     7.6332    -0.7161 H       
  43 H43            8.1937     6.6941     1.5055 H       
  44 H44            2.9212    -2.1376    -2.1053 H       
  45 H45            2.6467    -4.5835    -2.1058 H       
  46 H46            2.9180    -5.8550    -0.0163 H       
  47 H47            3.4589    -4.6851     2.0805 H       
  48 H48            4.8192    -1.5960     2.3829 H       
  49 H49            3.0912    -1.2503     2.6331 H       
  50 H50            5.8834    -3.4558     3.4798 H       
  51 H51            5.8333    -5.0592     5.3478 H       
  52 H52            3.7161    -5.5213     6.5172 H       
  53 H53            1.6493    -4.3794     5.8191 H       
  54 H54            1.7004    -2.7724     3.9541 H       
@<TRIPOS>BOND
   1    1    2 ar
   2    1    6 ar
   3    1   35 1
   4    2    3 ar
   5    2   36 1
   6    3    4 ar
   7    3   37 1
   8    4    5 ar
   9    4    7 1
  10    5    6 ar
  11    5   10 1
  12    6   38 1
  13    7    8 1
  14    7   16 1
  15    8    9 2
  16    8   39 1
  17    9   10 1
  18    9   11 1
  19   10   13 2
  20   11   12 am
  21   11   15 2
  22   12   13 1
  23   12   14 1
  24   14   17 ar
  25   14   21 ar
  26   16   23 ar
  27   16   24 ar
  28   17   18 ar
  29   17   40 1
  30   18   19 ar
  31   18   41 1
  32   19   20 ar
  33   19   42 1
  34   20   21 ar
  35   20   43 1
  36   21   22 1
  37   23   28 1
  38   23   27 ar
  39   24   25 ar
  40   24   44 1
  41   25   26 ar
  42   25   45 1
  43   26   27 ar
  44   26   46 1
  45   27   47 1
  46   28   29 1
  47   28   48 1
  48   28   49 1
  49   29   30 ar
  50   29   34 ar
  51   30   31 ar
  52   30   50 1
  53   31   32 ar
  54   31   51 1
  55   32   33 ar
  56   32   52 1
  57   33   34 ar
  58   33   53 1
  59   34   54 1

#	End of record

