#	Name: ASD01810366
#	Creating user name:	WinNT
#	Creation time:	15. 06. 2019 19:24

#	Modifying user name:	WinNT
#	Modification time:	15. 06. 2019 19:24

#	Program:	/corina/corina34_cracker 3.40 0067  02.08.2006

@<TRIPOS>MOLECULE
ASD01810366
  67   71    0    0    0
SMALL
NO_CHARGES


@<TRIPOS>ATOM
   1 C1            -0.1299     1.5419    -0.1865 C.ar    
   2 C2             0.0964     0.1742    -0.0210 C.ar    
   3 C3            -0.9610    -0.6786     0.2284 C.ar    
   4 C4            -2.2475    -0.1858     0.3158 C.ar    
   5 C5            -2.4878     1.1804     0.1522 C.ar    
   6 C6            -1.4249     2.0468    -0.0938 C.ar    
   7 C7             1.0039     2.4538    -0.4536 C.2     
   8 N8             2.2773     2.1305    -0.4138 N.2     
   9 C9             1.4974    -0.3728    -0.1152 C.3     
  10 C10           -3.8665     1.7068     0.2457 C.2     
  11 N11           -4.3370     2.5364    -0.7066 N.am    
  12 O12           -4.5753     1.3912     1.1813 O.2     
  13 C13           -5.6590     3.1623    -0.5674 C.3     
  14 C14           -6.4807     2.8640    -1.8255 C.3     
  15 C15           -5.6979     3.3162    -3.0603 C.3     
  16 C16           -4.3831     2.5378    -3.1463 C.3     
  17 C17           -3.5353     2.8368    -1.9006 C.3     
  18 C18           -6.5176     3.0554    -4.2977 C.ar    
  19 C19           -6.8728     4.1077    -5.1229 C.ar    
  20 C20           -7.6226     3.8760    -6.2574 C.ar    
  21 C21           -8.0233     2.5759    -6.5720 C.ar    
  22 C22           -7.6614     1.5187    -5.7348 C.ar    
  23 C23           -6.9068     1.7640    -4.6063 C.ar    
  24 C24           -8.8022     2.3281    -7.7478 C.1     
  25 N25           -9.4201     2.1314    -8.6805 N.1     
  26 C26            2.0404    -0.9090     1.2199 C.3     
  27 C27            2.6614    -2.0622     0.4140 C.3     
  28 C28            1.5602    -1.8199    -0.6317 C.3     
  29 C29            3.0151     3.2067    -0.7094 C.2     
  30 C30            2.1829     4.2418    -0.9432 C.2     
  31 N31            0.9063     3.7724    -0.7891 N.pl3   
  32 C32            2.5825     5.6478    -1.3101 C.3     
  33 C33           -3.3952    -1.1239     0.5878 C.3     
  34 O34            4.0071     5.7355    -1.3788 O.3     
  35 C35            4.4936     7.0347    -1.7217 C.3     
  36 H36           -0.7805    -1.7358     0.3553 H       
  37 H37           -1.6052     3.1040    -0.2211 H       
  38 H38            2.1828     0.3043    -0.6249 H       
  39 H39           -6.1668     2.7535     0.3061 H       
  40 H40           -5.5428     4.2402    -0.4540 H       
  41 H41           -6.6731     1.7930    -1.8888 H       
  42 H42           -7.4274     3.4020    -1.7777 H       
  43 H43           -5.4844     4.3824    -2.9845 H       
  44 H44           -4.5953     1.4698    -3.1972 H       
  45 H45           -3.8369     2.8436    -4.0386 H       
  46 H46           -3.2468     3.8879    -1.8986 H       
  47 H47           -2.6429     2.2109    -1.9070 H       
  48 H48           -6.5625     5.1128    -4.8781 H       
  49 H49           -7.8995     4.6983    -6.9005 H       
  50 H50           -7.9683     0.5108    -5.9721 H       
  51 H51           -6.6262     0.9472    -3.9578 H       
  52 H52            2.7777    -0.2551     1.6856 H       
  53 H53            1.2609    -1.2296     1.9111 H       
  54 H54            3.6656    -1.8480     0.0483 H       
  55 H55            2.5878    -3.0303     0.9094 H       
  56 H56            0.6495    -2.3895    -0.4467 H       
  57 H57            1.9099    -1.9014    -1.6609 H       
  58 H58            4.0937     3.2408    -0.7530 H       
  59 H59            0.0877     4.2823    -0.8929 H       
  60 H60            2.1554     5.9057    -2.2792 H       
  61 H61            2.2119     6.3399    -0.5540 H       
  62 H62           -3.5046    -1.2618     1.6635 H       
  63 H63           -4.3138    -0.7018     0.1803 H       
  64 H64           -3.1972    -2.0865     0.1163 H       
  65 H65            4.1627     7.7556    -0.9741 H       
  66 H66            5.5830     7.0181    -1.7531 H       
  67 H67            4.1062     7.3214    -2.6993 H       
@<TRIPOS>BOND
   1    1    2 ar
   2    1    7 1
   3    1    6 ar
   4    2    3 ar
   5    2    9 1
   6    3    4 ar
   7    3   36 1
   8    4    5 ar
   9    4   33 1
  10    5    6 ar
  11    5   10 1
  12    6   37 1
  13    7    8 2
  14    7   31 1
  15    8   29 1
  16    9   26 1
  17    9   28 1
  18    9   38 1
  19   10   11 am
  20   10   12 2
  21   11   13 1
  22   11   17 1
  23   13   14 1
  24   13   39 1
  25   13   40 1
  26   14   15 1
  27   14   41 1
  28   14   42 1
  29   15   16 1
  30   15   18 1
  31   15   43 1
  32   16   17 1
  33   16   44 1
  34   16   45 1
  35   17   46 1
  36   17   47 1
  37   18   19 ar
  38   18   23 ar
  39   19   20 ar
  40   19   48 1
  41   20   21 ar
  42   20   49 1
  43   21   22 ar
  44   21   24 1
  45   22   23 ar
  46   22   50 1
  47   23   51 1
  48   24   25 3
  49   26   27 1
  50   26   52 1
  51   26   53 1
  52   27   28 1
  53   27   54 1
  54   27   55 1
  55   28   56 1
  56   28   57 1
  57   29   30 2
  58   29   58 1
  59   30   31 1
  60   30   32 1
  61   31   59 1
  62   32   34 1
  63   32   60 1
  64   32   61 1
  65   33   62 1
  66   33   63 1
  67   33   64 1
  68   34   35 1
  69   35   65 1
  70   35   66 1
  71   35   67 1

#	End of record

