#	Name: ASD01881089
#	Creating user name:	WinNT
#	Creation time:	15. 06. 2019 19:42

#	Modifying user name:	WinNT
#	Modification time:	15. 06. 2019 19:42

#	Program:	/corina/corina34_cracker 3.40 0067  02.08.2006

@<TRIPOS>MOLECULE
ASD01881089
  40   42    0    0    0
SMALL
NO_CHARGES


@<TRIPOS>ATOM
   1 C1            -0.0169     1.3923     0.0097 C.ar    
   2 C2             0.0021    -0.0041     0.0020 C.ar    
   3 C3             1.2049    -0.6924    -0.0131 C.ar    
   4 C4             2.4000     0.0223    -0.0207 C.ar    
   5 C5             2.3707     1.4378    -0.0128 C.ar    
   6 C6             1.1458     2.1071     0.0024 C.ar    
   7 C7             3.7028    -0.6466    -0.0361 C.2     
   8 C8             4.8231     0.0929    -0.0424 C.2     
   9 N9             4.7982     1.4586    -0.0349 N.am    
  10 C10            3.6464     2.1580    -0.0206 C.2     
  11 C11            6.0683     2.1887    -0.0427 C.3     
  12 C12            6.4972     2.4506    -1.4878 C.3     
  13 C13            7.8236     3.2131    -1.4959 C.3     
  14 O14            3.6658     3.3760    -0.0151 O.2     
  15 N15           -1.1974    -0.7106     0.0101 N.3     
  16 C16           -2.3479     0.2045     0.0264 C.3     
  17 C17           -3.6426    -0.6109    -0.0255 C.3     
  18 O18           -3.6658    -1.5294     1.0705 O.3     
  19 C19           -2.5600    -2.4361     1.0853 C.3     
  20 C20           -1.2543    -1.6392     1.1485 C.3     
  21 H21           -0.9631     1.9128     0.0170 H       
  22 H22            1.2152    -1.7724    -0.0187 H       
  23 H23            1.1182     3.1868     0.0081 H       
  24 H24            3.7617    -1.7250    -0.0420 H       
  25 H25            5.7788    -0.4101    -0.0535 H       
  26 H26            5.9445     3.1386     0.4774 H       
  27 H27            6.8314     1.5955     0.4610 H       
  28 H28            6.6210     1.5007    -2.0078 H       
  29 H29            5.7340     3.0438    -1.9915 H       
  30 H30            7.6998     4.1630    -0.9758 H       
  31 H31            8.5868     2.6198    -0.9922 H       
  32 H32            8.1292     3.3996    -2.5254 H       
  33 H33           -2.3279     0.7980     0.9404 H       
  34 H34           -2.2993     0.8657    -0.8388 H       
  35 H35           -4.4985     0.0604     0.0439 H       
  36 H36           -3.6875    -1.1631    -0.9642 H       
  37 H37           -2.6329    -3.0849     1.9581 H       
  38 H38           -2.5734    -3.0414     0.1789 H       
  39 H39           -0.4074    -2.3238     1.1024 H       
  40 H40           -1.2169    -1.0752     2.0804 H       
@<TRIPOS>BOND
   1    1    2 ar
   2    1    6 ar
   3    1   21 1
   4    2    3 ar
   5    2   15 1
   6    3    4 ar
   7    3   22 1
   8    4    5 ar
   9    4    7 1
  10    5    6 ar
  11    5   10 1
  12    6   23 1
  13    7    8 2
  14    7   24 1
  15    8    9 1
  16    8   25 1
  17    9   10 am
  18    9   11 1
  19   10   14 2
  20   11   12 1
  21   11   26 1
  22   11   27 1
  23   12   13 1
  24   12   28 1
  25   12   29 1
  26   13   30 1
  27   13   31 1
  28   13   32 1
  29   15   16 1
  30   15   20 1
  31   16   17 1
  32   16   33 1
  33   16   34 1
  34   17   18 1
  35   17   35 1
  36   17   36 1
  37   18   19 1
  38   19   20 1
  39   19   37 1
  40   19   38 1
  41   20   39 1
  42   20   40 1

#	End of record

