#	Name: ASD01915529
#	Creating user name:	WinNT
#	Creation time:	15. 06. 2019 20:05

#	Modifying user name:	WinNT
#	Modification time:	15. 06. 2019 20:05

#	Program:	/corina/corina34_cracker 3.40 0067  02.08.2006

@<TRIPOS>MOLECULE
ASD01915529
  43   46    0    0    0
SMALL
NO_CHARGES


@<TRIPOS>ATOM
   1 C1            -0.1199     1.0176     0.0356 C.2     
   2 N2            -0.2041    -0.3558     0.0891 N.pl3   
   3 C3            -1.5042    -1.0370     0.1109 C.3     
   4 C4            -2.5336    -0.1389     0.7947 C.3     
   5 N5            -2.4967     1.2336     0.3019 N.am    
   6 C6            -1.3247     1.8609     0.0392 C.2     
   7 C7             1.2086     1.3356    -0.0005 C.2     
   8 C8             1.8777     0.1052     0.0457 C.2     
   9 N9             0.9738    -0.8451     0.1024 N.2     
  10 C10            3.3716    -0.0924     0.0321 C.3     
  11 O11            4.0196     1.1794    -0.0360 O.3     
  12 C12            5.3785     1.1792    -0.0566 C.ar    
  13 C13           -3.6941     1.9151     0.0963 C.ar    
  14 O14           -1.2719     3.0559    -0.1813 O.2     
  15 C15            6.0726     2.3786    -0.1220 C.ar    
  16 C16            6.0739    -0.0202    -0.0064 C.ar    
  17 C17            7.4552    -0.0178    -0.0275 C.ar    
  18 C18            8.1446     1.1787    -0.0985 C.ar    
  19 C19            7.4539     2.3756    -0.1428 C.ar    
  20 N20           -4.2367     1.9382    -1.1111 N.ar    
  21 C21           -5.3690     2.5716    -1.3488 C.ar    
  22 C22           -6.0331     3.2386    -0.3379 C.ar    
  23 C23           -5.4974     3.2385     0.9426 C.ar    
  24 C24           -4.3113     2.5601     1.1621 C.ar    
  25 C25           -3.6907     2.5314     2.5350 C.3     
  26 H26           -1.8235    -1.2442    -0.9105 H       
  27 H27           -1.4151    -1.9734     0.6618 H       
  28 H28           -3.5287    -0.5486     0.6215 H       
  29 H29           -2.3390    -0.1334     1.8672 H       
  30 H30            1.6475     2.3210    -0.0536 H       
  31 H31            3.6782    -0.6081     0.9421 H       
  32 H32            3.6513    -0.6896    -0.8358 H       
  33 H33            5.5336     3.3138    -0.1570 H       
  34 H34            5.5359    -0.9550     0.0494 H       
  35 H35            7.9971    -0.9512     0.0119 H       
  36 H36            9.2245     1.1784    -0.1149 H       
  37 H37            7.9947     3.3088    -0.1986 H       
  38 H38           -5.7821     2.5689    -2.3467 H       
  39 H39           -6.9594     3.7551    -0.5418 H       
  40 H40           -5.9971     3.7526     1.7502 H       
  41 H41           -4.0753     1.6756     3.0898 H       
  42 H42           -2.6079     2.4477     2.4426 H       
  43 H43           -3.9401     3.4503     3.0657 H       
@<TRIPOS>BOND
   1    1    2 1
   2    1    7 2
   3    1    6 1
   4    2    3 1
   5    2    9 1
   6    3    4 1
   7    3   26 1
   8    3   27 1
   9    4    5 1
  10    4   28 1
  11    4   29 1
  12    5    6 am
  13    5   13 1
  14    6   14 2
  15    7    8 1
  16    7   30 1
  17    8    9 2
  18    8   10 1
  19   10   11 1
  20   10   31 1
  21   10   32 1
  22   11   12 1
  23   12   15 ar
  24   12   16 ar
  25   13   20 ar
  26   13   24 ar
  27   15   19 ar
  28   15   33 1
  29   16   17 ar
  30   16   34 1
  31   17   18 ar
  32   17   35 1
  33   18   19 ar
  34   18   36 1
  35   19   37 1
  36   20   21 ar
  37   21   22 ar
  38   21   38 1
  39   22   23 ar
  40   22   39 1
  41   23   24 ar
  42   23   40 1
  43   24   25 1
  44   25   41 1
  45   25   42 1
  46   25   43 1

#	End of record

