#	Name: ASD05430320
#	Creating user name:	WinNT
#	Creation time:	15. 06. 2019 21:00

#	Modifying user name:	WinNT
#	Modification time:	15. 06. 2019 21:00

#	Program:	/corina/corina34_cracker 3.40 0067  02.08.2006

@<TRIPOS>MOLECULE
ASD05430320
  54   58    0    0    0
SMALL
NO_CHARGES


@<TRIPOS>ATOM
   1 N1            -0.0681     2.0215     0.0691 N.pl3   
   2 C2             1.4104     1.8766    -0.0013 C.3     
   3 O3             1.8192     3.0377    -0.7274 O.3     
   4 N4             0.7288     3.9433    -0.6563 N.2     
   5 C5            -0.3265     3.3524    -0.1743 C.2     
   6 C6             2.0543     1.7910     1.3585 C.ar    
   7 C7             3.4060     2.0424     1.5000 C.ar    
   8 C8             1.2918     1.4665     2.4649 C.ar    
   9 C9             1.8830     1.3879     3.7131 C.ar    
  10 C10            3.2374     1.6342     3.8532 C.ar    
  11 C11            3.9976     1.9635     2.7472 C.ar    
  12 C12           -1.6137     4.0130     0.0752 C.2     
  13 C13           -1.7620     5.3226    -0.1976 C.2     
  14 C14           -3.0526     5.9850     0.0526 C.ar    
  15 C15           -4.1258     5.2551     0.5738 C.ar    
  16 C16           -3.2067     7.3466    -0.2248 C.ar    
  17 C17           -4.4204     7.9637     0.0124 C.ar    
  18 C18           -5.4876     7.2284     0.5272 C.ar    
  19 C19           -5.3329     5.8769     0.8077 C.ar    
  20 N20           -6.7175     7.8559     0.7675 N.pl3   
  21 C21           -6.9138     9.0118     1.4533 C.2     
  22 N22           -8.1920     9.2764     1.4648 N.2     
  23 C23           -8.8504     8.3165     0.7984 C.2     
  24 C24           -7.9490     7.4222     0.3497 C.2     
  25 O25           -4.5737     9.2877    -0.2558 O.3     
  26 C26           -3.4387     9.9789    -0.7811 C.3     
  27 C27          -10.3407     8.2526     0.5843 C.3     
  28 C28           -0.5803     0.6708     0.3203 C.3     
  29 C29            0.4411    -0.3104    -0.2948 C.3     
  30 C30            1.5840     0.5886    -0.8320 C.3     
  31 Cl31           0.9260     0.9811     5.1031 Cl      
  32 H32            4.0005     2.3002     0.6359 H       
  33 H33            0.2347     1.2748     2.3550 H       
  34 H34            3.6995     1.5730     4.8275 H       
  35 H35            5.0547     2.1558     2.8564 H       
  36 H36           -2.4416     3.4482     0.4777 H       
  37 H37           -0.9341     5.8874    -0.6001 H       
  38 H38           -4.0084     4.2040     0.7925 H       
  39 H39           -2.3793     7.9149    -0.6232 H       
  40 H40           -6.1621     5.3110     1.2060 H       
  41 H41           -6.1417     9.6112     1.9127 H       
  42 H42           -8.1572     6.5307    -0.2234 H       
  43 H43           -3.6961    11.0246    -0.9496 H       
  44 H44           -2.6149     9.9176    -0.0700 H       
  45 H45           -3.1394     9.5218    -1.7242 H       
  46 H46          -10.5977     8.7717    -0.3390 H       
  47 H47          -10.6534     7.2108     0.5145 H       
  48 H48          -10.8490     8.7291     1.4226 H       
  49 H49           -0.6653     0.4972     1.3930 H       
  50 H50           -1.5523     0.5454    -0.1568 H       
  51 H51            0.8204    -0.9904     0.4680 H       
  52 H52           -0.0155    -0.8710    -1.1104 H       
  53 H53            1.4502     0.7918    -1.8945 H       
  54 H54            2.5562     0.1337    -0.6428 H       
@<TRIPOS>BOND
   1    1   28 1
   2    1    2 1
   3    1    5 1
   4    2    3 1
   5    2    6 1
   6    2   30 1
   7    3    4 1
   8    4    5 2
   9    5   12 1
  10    6    7 ar
  11    6    8 ar
  12    7   11 ar
  13    7   32 1
  14    8    9 ar
  15    8   33 1
  16    9   10 ar
  17    9   31 1
  18   10   11 ar
  19   10   34 1
  20   11   35 1
  21   12   13 2
  22   12   36 1
  23   13   14 1
  24   13   37 1
  25   14   15 ar
  26   14   16 ar
  27   15   19 ar
  28   15   38 1
  29   16   17 ar
  30   16   39 1
  31   17   18 ar
  32   17   25 1
  33   18   19 ar
  34   18   20 1
  35   19   40 1
  36   20   21 1
  37   20   24 1
  38   21   22 2
  39   21   41 1
  40   22   23 1
  41   23   24 2
  42   23   27 1
  43   24   42 1
  44   25   26 1
  45   26   43 1
  46   26   44 1
  47   26   45 1
  48   27   46 1
  49   27   47 1
  50   27   48 1
  51   28   29 1
  52   28   49 1
  53   28   50 1
  54   29   30 1
  55   29   51 1
  56   29   52 1
  57   30   53 1
  58   30   54 1

#	End of record

