#	Name: ASD01140504
#	Creating user name:	WinNT
#	Creation time:	15. 06. 2019 19:01

#	Modifying user name:	WinNT
#	Modification time:	15. 06. 2019 19:01

#	Program:	/corina/corina34_cracker 3.40 0067  02.08.2006

@<TRIPOS>MOLECULE
ASD01140504
  52   52    0    0    0
SMALL
NO_CHARGES


@<TRIPOS>ATOM
   1 C1            -0.0169     1.3961     0.0097 C.ar    
   2 C2             0.0021    -0.0041     0.0020 C.ar    
   3 C3             1.2048    -0.6735    -0.0131 C.ar    
   4 C4             2.3862     1.4281    -0.0131 C.ar    
   5 C5             1.1891     2.1077     0.0020 C.ar    
   6 C6             3.5242    -2.0550    -0.0417 C.3     
   7 O7             3.5825    -0.6272    -0.0351 O.3     
   8 C8             2.3992     0.0380    -0.0202 C.ar    
   9 C9            -1.2973     2.1159     0.0197 C.2     
  10 C10           -1.3129     3.4696     0.0271 C.2     
  11 C11           -2.5425     4.1608     0.0367 C.2     
  12 C12           -2.5581     5.5185     0.0442 C.2     
  13 C13           -3.7921     6.2121     0.0538 C.2     
  14 N14           -3.8075     7.5598     0.0612 N.am    
  15 O15           -4.8396     5.5912     0.0554 O.2     
  16 C16           -2.5473     8.3068     0.0593 C.3     
  17 C17           -5.0846     8.2776     0.0712 C.3     
  18 C18           -2.1155     8.5747    -1.3838 C.3     
  19 C19           -0.7993     9.3549    -1.3858 C.3     
  20 C20           -5.5223     8.5197     1.5171 C.3     
  21 C21           -6.8560     9.2694     1.5275 C.3     
  22 C22           -0.3675     9.6228    -2.8290 C.3     
  23 C23           -7.2937     9.5114     2.9735 C.3     
  24 H24           -0.9252    -0.5577     0.0083 H       
  25 H25            1.2206    -1.7533    -0.0190 H       
  26 H26            3.3169     1.9759    -0.0194 H       
  27 H27            1.1801     3.1876     0.0076 H       
  28 H28            3.0046    -2.4015     0.8517 H       
  29 H29            2.9873    -2.3925    -0.9282 H       
  30 H30            4.5361    -2.4599    -0.0536 H       
  31 H31           -2.2264     1.5651     0.0211 H       
  32 H32           -0.3839     4.0203     0.0257 H       
  33 H33           -3.4715     3.6101     0.0382 H       
  34 H34           -1.6290     6.0692     0.0428 H       
  35 H35           -2.6861     9.2549     0.5790 H       
  36 H36           -1.7785     7.7238     0.5663 H       
  37 H37           -4.9676     9.2343    -0.4380 H       
  38 H38           -5.8398     7.6826    -0.4423 H       
  39 H39           -1.9766     7.6267    -1.9035 H       
  40 H40           -2.8843     9.1578    -1.8909 H       
  41 H41           -0.9381    10.3030    -0.8662 H       
  42 H42           -0.0305     8.7718    -0.8788 H       
  43 H43           -5.6392     7.5631     2.0263 H       
  44 H44           -4.7670     9.1147     2.0306 H       
  45 H45           -6.7390    10.2260     1.0183 H       
  46 H46           -7.6113     8.6744     1.0140 H       
  47 H47           -1.1363    10.2059    -3.3360 H       
  48 H48            0.5702    10.1787    -2.8304 H       
  49 H49           -0.2286     8.6748    -3.3486 H       
  50 H50           -6.5385    10.1064     3.4869 H       
  51 H51           -8.2439    10.0455     2.9809 H       
  52 H52           -7.4107     8.5548     3.4827 H       
@<TRIPOS>BOND
   1    1    2 ar
   2    1    5 ar
   3    1    9 1
   4    2    3 ar
   5    2   24 1
   6    3    8 ar
   7    3   25 1
   8    4    5 ar
   9    4    8 ar
  10    4   26 1
  11    5   27 1
  12    6    7 1
  13    6   28 1
  14    6   29 1
  15    6   30 1
  16    7    8 1
  17    9   10 2
  18    9   31 1
  19   10   11 1
  20   10   32 1
  21   11   12 2
  22   11   33 1
  23   12   13 1
  24   12   34 1
  25   13   14 am
  26   13   15 2
  27   14   16 1
  28   14   17 1
  29   16   18 1
  30   16   35 1
  31   16   36 1
  32   17   20 1
  33   17   37 1
  34   17   38 1
  35   18   19 1
  36   18   39 1
  37   18   40 1
  38   19   22 1
  39   19   41 1
  40   19   42 1
  41   20   21 1
  42   20   43 1
  43   20   44 1
  44   21   23 1
  45   21   45 1
  46   21   46 1
  47   22   47 1
  48   22   48 1
  49   22   49 1
  50   23   50 1
  51   23   51 1
  52   23   52 1

#	End of record

