#	Name: ASD01917709
#	Creating user name:	WinNT
#	Creation time:	15. 06. 2019 20:09

#	Modifying user name:	WinNT
#	Modification time:	15. 06. 2019 20:09

#	Program:	/corina/corina34_cracker 3.40 0067  02.08.2006

@<TRIPOS>MOLECULE
ASD01917709
  44   47    0    0    0
SMALL
NO_CHARGES


@<TRIPOS>ATOM
   1 C1            -0.0188     1.5379     0.0105 C.3     
   2 C2             0.0021    -0.0041     0.0020 C.3     
   3 C3            -1.1988    -0.3970    -0.8277 C.2     
   4 N4            -1.6435     0.6580    -1.5280 N.am    
   5 C5            -0.8487     1.8625    -1.2618 C.3     
   6 C6            -2.7838     0.6125    -2.4467 C.3     
   7 O7            -1.6896    -1.5056    -0.8563 O.2     
   8 C8             1.2701    -0.5090    -0.6368 C.ar    
   9 N9             2.3014    -0.8192     0.1255 N.ar    
  10 C10            3.4319    -1.2649    -0.3811 C.ar    
  11 C11            3.5767    -1.4254    -1.7617 C.ar    
  12 C12            2.4983    -1.1039    -2.5965 C.ar    
  13 C13            1.3313    -0.6446    -2.0121 C.ar    
  14 C14            4.8079    -1.9046    -2.3142 C.1     
  15 C15            5.8173    -2.2975    -2.7671 C.1     
  16 C16            7.0484    -2.7767    -3.3195 C.ar    
  17 C17            8.1179    -3.0945    -2.4790 C.ar    
  18 C18            9.3024    -3.5568    -3.0195 C.ar    
  19 C19            9.4296    -3.7048    -4.3915 C.ar    
  20 C20            8.3732    -3.3913    -5.2283 C.ar    
  21 C21            7.1835    -2.9339    -4.7017 C.ar    
  22 C22           -1.7966     3.0118    -0.8730 C.3     
  23 C23           -1.5240     3.3321     0.6105 C.3     
  24 C24           -0.8933     2.0271     1.1878 C.3     
  25 H25           -0.2100     2.1192    -2.1069 H       
  26 H26            0.9770     1.9810     0.0034 H       
  27 H27           -0.0937    -0.3911     1.0165 H       
  28 F28           10.3387    -3.8646    -2.2091 F       
  29 H29           -3.1974    -0.3958    -2.4629 H       
  30 H30           -3.5484     1.3135    -2.1117 H       
  31 H31           -2.4541     0.8862    -3.4489 H       
  32 H32            4.2541    -1.5080     0.2755 H       
  33 H33            2.5760    -1.2114    -3.6683 H       
  34 H34            0.4780    -0.3912    -2.6237 H       
  35 H35            8.0192    -2.9790    -1.4097 H       
  36 H36           10.3575    -4.0661    -4.8095 H       
  37 H37            8.4792    -3.5090    -6.2966 H       
  38 H38            6.3602    -2.6901    -5.3568 H       
  39 H39           -1.5910     3.8884    -1.4874 H       
  40 H40           -2.8330     2.7002    -1.0027 H       
  41 H41           -0.8159     4.1560     0.6990 H       
  42 H42           -2.4542     3.5704     1.1264 H       
  43 H43           -1.6657     1.2919     1.4137 H       
  44 H44           -0.2956     2.2455     2.0727 H       
@<TRIPOS>BOND
   1    1    2 1
   2    1   26 1
   3    1    5 1
   4    1   24 1
   5    2    3 1
   6    2    8 1
   7    2   27 1
   8    3    4 am
   9    3    7 2
  10    4    5 1
  11    4    6 1
  12    5   22 1
  13    5   25 1
  14    6   29 1
  15    6   30 1
  16    6   31 1
  17    8    9 ar
  18    8   13 ar
  19    9   10 ar
  20   10   11 ar
  21   10   32 1
  22   11   12 ar
  23   11   14 1
  24   12   13 ar
  25   12   33 1
  26   13   34 1
  27   14   15 3
  28   15   16 1
  29   16   17 ar
  30   16   21 ar
  31   17   18 ar
  32   17   35 1
  33   18   19 ar
  34   18   28 1
  35   19   20 ar
  36   19   36 1
  37   20   21 ar
  38   20   37 1
  39   21   38 1
  40   22   23 1
  41   22   39 1
  42   22   40 1
  43   23   24 1
  44   23   41 1
  45   23   42 1
  46   24   43 1
  47   24   44 1

#	End of record

