#	Name: ASD07301063
#	Creating user name:	WinNT
#	Creation time:	15. 06. 2019 21:10

#	Modifying user name:	WinNT
#	Modification time:	15. 06. 2019 21:10

#	Program:	/corina/corina34_cracker 3.40 0067  02.08.2006

@<TRIPOS>MOLECULE
ASD07301063
  44   45    0    0    0
SMALL
NO_CHARGES


@<TRIPOS>ATOM
   1 C1            -0.5382     0.5496     1.2999 C.3     
   2 C2             0.0024    -0.0038     0.0067 C.2     
   3 C3             1.3288    -0.6207    -0.0274 C.2     
   4 C4             1.4653    -2.0705     0.1150 C.2     
   5 C5             2.8314    -2.7058     0.0800 C.3     
   6 O6            -0.6623     0.0621    -1.0066 O.2     
   7 O7             0.4783    -2.7615     0.2613 O.2     
   8 N8             2.4059     0.1333    -0.1871 N.2     
   9 N9             2.2807     1.3967    -0.4156 N.pl3   
  10 C10            3.4084     2.1713    -0.6886 C.ar    
  11 C11            3.2737     3.5332    -0.9350 C.ar    
  12 C12            4.3890     4.2987    -1.2050 C.ar    
  13 C13            5.6473     3.7090    -1.2308 C.ar    
  14 C14            5.7823     2.3478    -0.9850 C.ar    
  15 C15            4.6681     1.5827    -0.7089 C.ar    
  16 N16            6.7764     4.4846    -1.5042 N.3     
  17 C17            7.9962     3.6652    -1.4817 C.3     
  18 C18            9.1977     4.5332    -1.8631 C.3     
  19 N19            9.3046     5.6576    -0.9229 N.3     
  20 C20            8.0848     6.4769    -0.9454 C.3     
  21 C21            6.8833     5.6090    -0.5640 C.3     
  22 C22           10.4920     6.4732    -1.2105 C.3     
  23 H23            0.1544     0.3222     2.1102 H       
  24 H24           -0.6534     1.6300     1.2128 H       
  25 H25           -1.5068     0.0969     1.5121 H       
  26 H26            3.5879    -1.9333    -0.0578 H       
  27 H27            3.0130    -3.2290     1.0188 H       
  28 H28            2.8813    -3.4147    -0.7465 H       
  29 H29            1.4025     1.8082    -0.3976 H       
  30 H30            2.2959     3.9914    -0.9153 H       
  31 H31            4.2844     5.3564    -1.3967 H       
  32 H32            6.7601     1.8898    -1.0059 H       
  33 H33            4.7736     0.5258    -0.5132 H       
  34 H34            8.1435     3.2599    -0.4807 H       
  35 H35            7.8977     2.8469    -2.1949 H       
  36 H36           10.1074     3.9345    -1.8190 H       
  37 H37            9.0629     4.9165    -2.8746 H       
  38 H38            8.1833     7.2953    -0.2322 H       
  39 H39            7.9375     6.8823    -1.9464 H       
  40 H40            5.9736     6.2077    -0.6082 H       
  41 H41            7.0181     5.2257     0.4474 H       
  42 H42           10.4237     6.8699    -2.2234 H       
  43 H43           10.5469     7.2981    -0.5001 H       
  44 H44           11.3865     5.8567    -1.1213 H       
@<TRIPOS>BOND
   1    1    2 1
   2    1   23 1
   3    1   24 1
   4    1   25 1
   5    2    3 1
   6    2    6 2
   7    3    4 1
   8    3    8 2
   9    4    5 1
  10    4    7 2
  11    5   26 1
  12    5   27 1
  13    5   28 1
  14    8    9 1
  15    9   10 1
  16    9   29 1
  17   10   11 ar
  18   10   15 ar
  19   11   12 ar
  20   11   30 1
  21   12   13 ar
  22   12   31 1
  23   13   14 ar
  24   13   16 1
  25   14   15 ar
  26   14   32 1
  27   15   33 1
  28   16   17 1
  29   16   21 1
  30   17   18 1
  31   17   34 1
  32   17   35 1
  33   18   19 1
  34   18   36 1
  35   18   37 1
  36   19   20 1
  37   19   22 1
  38   20   21 1
  39   20   38 1
  40   20   39 1
  41   21   40 1
  42   21   41 1
  43   22   42 1
  44   22   43 1
  45   22   44 1

#	End of record

