#	Name: ASD03240558
#	Creating user name:	WinNT
#	Creation time:	15. 06. 2019 20:35

#	Modifying user name:	WinNT
#	Modification time:	15. 06. 2019 20:35

#	Program:	/corina/corina34_cracker 3.40 0067  02.08.2006

@<TRIPOS>MOLECULE
ASD03240558
  63   70    0    0    0
SMALL
NO_CHARGES


@<TRIPOS>ATOM
   1 C1            -0.0166     1.3755     0.0096 C.ar    
   2 C2             0.0021    -0.0041     0.0020 C.ar    
   3 N3             1.1422    -0.6683    -0.0058 N.ar    
   4 C4             2.3145    -0.0481    -0.0058 C.ar    
   5 C5             2.3702     1.3442    -0.0124 C.ar    
   6 C6             1.1860     2.0698     0.0019 C.ar    
   7 N7             3.4819    -0.8058     0.0220 N.pl3   
   8 C8             4.3588    -0.7197     1.0999 C.ar    
   9 C9             4.9950     0.4884     1.4043 C.ar    
  10 C10            4.7643     1.6832     0.5627 C.2     
  11 N11            3.5938     2.0277    -0.0513 N.pl3   
  12 C12            4.6041    -1.8396     1.8833 C.ar    
  13 C13            5.4631    -1.7545     2.9623 C.ar    
  14 C14            6.0843    -0.5567     3.2714 C.ar    
  15 C15            5.8555     0.5644     2.4992 C.ar    
  16 N16            5.6767     2.5929     0.2868 N.2     
  17 C17            5.1475     3.5403    -0.5049 C.2     
  18 C18            3.8217     3.2039    -0.7371 C.2     
  19 C19            2.8494     3.9539    -1.5544 C.ar    
  20 C20            2.7503     5.3422    -1.4296 C.ar    
  21 C21            2.0270     3.2802    -2.4614 C.ar    
  22 C22            1.1206     3.9881    -3.2225 C.ar    
  23 C23            1.0247     5.3623    -3.0900 C.ar    
  24 C24            1.8392     6.0368    -2.1973 C.ar    
  25 C25            5.8496     4.7264    -1.0322 C.2     
  26 C26            0.0320     6.1287    -3.9257 C.3     
  27 N27           -1.0469     5.2809    -4.4502 N.3     
  28 C28           -0.4688     7.4200    -3.2574 C.3     
  29 C29           -0.3813     8.0784    -4.6443 C.3     
  30 C30            0.6855     7.0241    -4.9916 C.3     
  31 C31            6.7888     5.4030    -0.3686 C.2     
  32 C32            7.3402     6.5357    -1.0877 C.ar    
  33 C33            6.7610     6.6855    -2.3520 C.ar    
  34 S34            5.5633     5.4243    -2.6144 S.3     
  35 C35            8.3370     7.4519    -0.6822 C.ar    
  36 C36            8.7238     8.4611    -1.5091 C.ar    
  37 C37            8.1464     8.6072    -2.7634 C.ar    
  38 C38            7.1751     7.7295    -3.1847 C.ar    
  39 H39           -0.9556     1.9091     0.0170 H       
  40 H40           -0.9306    -0.5486     0.0028 H       
  41 H41            1.2002     3.1497     0.0064 H       
  42 H42            3.6864    -1.4000    -0.7170 H       
  43 H43            4.1229    -2.7778     1.6493 H       
  44 H44            5.6508    -2.6282     3.5687 H       
  45 H45            6.7503    -0.4990     4.1196 H       
  46 H46            6.3412     1.4978     2.7425 H       
  47 H47            3.3853     5.8698    -0.7333 H       
  48 H48            2.1013     2.2079    -2.5663 H       
  49 H49            0.4844     3.4688    -3.9238 H       
  50 H50            1.7588     7.1093    -2.0992 H       
  51 H51           -0.6740     4.4588    -4.9010 H       
  52 H52           -1.6967     5.0297    -3.7204 H       
  53 H53           -1.4859     7.3462    -2.8724 H       
  54 H54            0.2303     7.8357    -2.5318 H       
  55 H55           -1.2948     7.9831    -5.2314 H       
  56 H56            0.0029     9.0981    -4.6201 H       
  57 H57            1.7007     7.3310    -4.7403 H       
  58 H58            0.5991     6.6329    -6.0053 H       
  59 H59            7.1124     5.1294     0.6248 H       
  60 H60            8.7946     7.3507     0.2909 H       
  61 H61            9.4863     9.1547    -1.1868 H       
  62 H62            8.4613     9.4126    -3.4103 H       
  63 H63            6.7295     7.8480    -4.1613 H       
@<TRIPOS>BOND
   1    1    2 ar
   2    1    6 ar
   3    1   39 1
   4    2    3 ar
   5    2   40 1
   6    3    4 ar
   7    4    5 ar
   8    4    7 1
   9    5    6 ar
  10    5   11 1
  11    6   41 1
  12    7    8 1
  13    7   42 1
  14    8    9 ar
  15    8   12 ar
  16    9   10 1
  17    9   15 ar
  18   10   11 1
  19   10   16 2
  20   11   18 1
  21   12   13 ar
  22   12   43 1
  23   13   14 ar
  24   13   44 1
  25   14   15 ar
  26   14   45 1
  27   15   46 1
  28   16   17 1
  29   17   18 2
  30   17   25 1
  31   18   19 1
  32   19   20 ar
  33   19   21 ar
  34   20   24 ar
  35   20   47 1
  36   21   22 ar
  37   21   48 1
  38   22   23 ar
  39   22   49 1
  40   23   24 ar
  41   23   26 1
  42   24   50 1
  43   25   31 2
  44   25   34 1
  45   26   27 1
  46   26   28 1
  47   26   30 1
  48   27   51 1
  49   27   52 1
  50   28   29 1
  51   28   53 1
  52   28   54 1
  53   29   30 1
  54   29   55 1
  55   29   56 1
  56   30   57 1
  57   30   58 1
  58   31   32 1
  59   31   59 1
  60   32   33 ar
  61   32   35 ar
  62   33   34 1
  63   33   38 ar
  64   35   36 ar
  65   35   60 1
  66   36   37 ar
  67   36   61 1
  68   37   38 ar
  69   37   62 1
  70   38   63 1

#	End of record

