#	Name: ASD01812952
#	Creating user name:	WinNT
#	Creation time:	15. 06. 2019 19:29

#	Modifying user name:	WinNT
#	Modification time:	15. 06. 2019 19:29

#	Program:	/corina/corina34_cracker 3.40 0067  02.08.2006

@<TRIPOS>MOLECULE
ASD01812952
  50   54    0    0    0
SMALL
NO_CHARGES


@<TRIPOS>ATOM
   1 C1            -0.0166     1.3763     0.0096 C.ar    
   2 C2             0.0021    -0.0041     0.0020 C.ar    
   3 C3             1.2089    -0.6873    -0.0132 C.ar    
   4 C4             2.3943     0.0073    -0.0207 C.ar    
   5 C5             2.3945     1.4054    -0.0132 C.ar    
   6 C6             1.1722     2.0915     0.0021 C.ar    
   7 C7             3.8414    -0.4181    -0.0373 C.3     
   8 N8             4.6316     0.8184    -0.0384 N.am    
   9 C9             3.7920     1.8679    -0.0245 C.2     
  10 C10            6.0945     0.8961    -0.0529 C.3     
  11 C11            6.5816     0.9306    -1.4786 C.ar    
  12 O12            1.1518     3.4477     0.0091 O.3     
  13 O13            4.1376     3.0337    -0.0217 O.2     
  14 C14            6.7407     2.1446    -2.1228 C.ar    
  15 C15            7.1863     2.1832    -3.4279 C.ar    
  16 C16            7.4768     0.9941    -4.0983 C.ar    
  17 C17            7.3142    -0.2271    -3.4427 C.ar    
  18 C18            6.8733    -0.2515    -2.1356 C.ar    
  19 C19            7.9543     1.0280    -5.4971 C.2     
  20 N20            8.1499     2.1009    -6.2271 N.2     
  21 N21            8.5677     1.7507    -7.3925 N.2     
  22 C22            8.6545     0.4511    -7.4519 C.2     
  23 O23            8.2753    -0.0371    -6.2584 O.3     
  24 C24            9.1041    -0.3571    -8.6417 C.3     
  25 C25           -0.0561     4.0669     0.0235 C.ar    
  26 C26           -0.6712     4.3819     1.2424 C.ar    
  27 C27           -1.9148     5.0193     1.2445 C.ar    
  28 C28           -2.5285     5.3341     0.0514 C.ar    
  29 C29           -1.9185     5.0217    -1.1524 C.ar    
  30 C30           -0.6856     4.3963    -1.1698 C.ar    
  31 C31           -0.0292     4.0520     2.4791 C.1     
  32 N32            0.4801     3.7903     3.4603 N.1     
  33 F33           -0.0951     4.1007    -2.3484 F       
  34 H34           -0.9603     1.9015     0.0169 H       
  35 H35           -0.9272    -0.5544     0.0083 H       
  36 H36            1.2168    -1.7673    -0.0187 H       
  37 H37            4.0689    -1.0074     0.8510 H       
  38 H38            4.0513    -0.9978    -0.9361 H       
  39 H39            6.4154     1.8012     0.4628 H       
  40 H40            6.5097     0.0238     0.4519 H       
  41 H41            6.5152     3.0641    -1.6030 H       
  42 H42            7.3097     3.1315    -3.9299 H       
  43 H43            7.5369    -1.1508    -3.9560 H       
  44 H44            6.7512    -1.1957    -1.6256 H       
  45 H45           10.1833    -0.5027    -8.5952 H       
  46 H46            8.6059    -1.3265    -8.6316 H       
  47 H47            8.8482     0.1734    -9.5589 H       
  48 H48           -2.3948     5.2647     2.1803 H       
  49 H49           -3.4898     5.8263     0.0550 H       
  50 H50           -2.4068     5.2721    -2.0827 H       
@<TRIPOS>BOND
   1    1    2 ar
   2    1    6 ar
   3    1   34 1
   4    2    3 ar
   5    2   35 1
   6    3    4 ar
   7    3   36 1
   8    4    7 1
   9    4    5 ar
  10    5    6 ar
  11    5    9 1
  12    6   12 1
  13    7    8 1
  14    7   37 1
  15    7   38 1
  16    8    9 am
  17    8   10 1
  18    9   13 2
  19   10   11 1
  20   10   39 1
  21   10   40 1
  22   11   14 ar
  23   11   18 ar
  24   12   25 1
  25   14   15 ar
  26   14   41 1
  27   15   16 ar
  28   15   42 1
  29   16   17 ar
  30   16   19 1
  31   17   18 ar
  32   17   43 1
  33   18   44 1
  34   19   20 2
  35   19   23 1
  36   20   21 1
  37   21   22 2
  38   22   23 1
  39   22   24 1
  40   24   45 1
  41   24   46 1
  42   24   47 1
  43   25   26 ar
  44   25   30 ar
  45   26   27 ar
  46   26   31 1
  47   27   28 ar
  48   27   48 1
  49   28   29 ar
  50   28   49 1
  51   29   30 ar
  52   29   50 1
  53   30   33 1
  54   31   32 3

#	End of record

