#	Name: ASD01880223
#	Creating user name:	WinNT
#	Creation time:	15. 06. 2019 19:40

#	Modifying user name:	WinNT
#	Modification time:	15. 06. 2019 19:40

#	Program:	/corina/corina34_cracker 3.40 0067  02.08.2006

@<TRIPOS>MOLECULE
ASD01880223
  49   51    0    0    0
SMALL
NO_CHARGES


@<TRIPOS>ATOM
   1 C1            -0.0184     1.5028     0.0103 C.3     
   2 C2             0.0021    -0.0041     0.0020 C.ar    
   3 C3             0.0230    -0.7118     1.1957 C.ar    
   4 C4             0.0409    -2.0949     1.1429 C.ar    
   5 C5             0.0372    -2.7239    -0.0953 C.ar    
   6 N6             0.0170    -2.0146    -1.2116 N.ar    
   7 C7            -0.0056    -0.6955    -1.1933 C.ar    
   8 O8             0.0550    -4.0790    -0.1605 O.3     
   9 N9             1.3560     2.0099    -0.0001 N.am    
  10 C10            2.1471     2.3124    -1.2027 C.3     
  11 C11            3.4948     2.8051    -0.6411 C.3     
  12 O12            3.3236     2.7294     0.8038 O.3     
  13 C13            2.0955     2.2792     1.0845 C.2     
  14 C14            3.7612     4.2480    -1.0747 C.3     
  15 O15            1.6905     2.1211     2.2191 O.2     
  16 C16            0.0502    -4.6659    -1.4634 C.3     
  17 C17            1.4907    -4.8557    -1.9426 C.3     
  18 C18           -0.6521    -6.0241    -1.4084 C.3     
  19 C19           -2.0927    -5.8342    -0.9292 C.3     
  20 C20           -2.7950    -7.1924    -0.8741 C.3     
  21 C21           -2.8002    -7.8208    -2.2691 C.3     
  22 C22           -1.3596    -8.0106    -2.7483 C.3     
  23 C23           -0.6573    -6.6524    -2.8034 C.3     
  24 H24           -0.5455     1.8639    -0.8728 H       
  25 H25           -0.5286     1.8543     0.9071 H       
  26 H26            0.0257    -0.1952     2.1441 H       
  27 H27            0.0577    -2.6771     2.0524 H       
  28 H28           -0.0217    -0.1496    -2.1250 H       
  29 H29            2.2883     1.4143    -1.8041 H       
  30 H30            1.6675     3.0958    -1.7895 H       
  31 H31            4.3053     2.1520    -0.9646 H       
  32 H32            2.9654     4.8924    -0.7013 H       
  33 H33            4.7172     4.5787    -0.6688 H       
  34 H34            3.7909     4.3007    -2.1631 H       
  35 H35           -0.4795    -4.0108    -2.1550 H       
  36 H36            1.9911    -3.8881    -1.9818 H       
  37 H37            2.0204    -5.5109    -1.2510 H       
  38 H38            1.4870    -5.3034    -2.9364 H       
  39 H39           -0.1225    -6.6792    -0.7167 H       
  40 H40           -2.0890    -5.3866     0.0647 H       
  41 H41           -2.6223    -5.1791    -1.6208 H       
  42 H42           -2.2654    -7.8476    -0.1825 H       
  43 H43           -3.8213    -7.0572    -0.5327 H       
  44 H44           -3.3006    -8.7884    -2.2299 H       
  45 H45           -3.3298    -7.1656    -2.9607 H       
  46 H46           -0.8300    -8.6658    -2.0567 H       
  47 H47           -1.3633    -8.4583    -3.7421 H       
  48 H48           -1.1870    -5.9973    -3.4950 H       
  49 H49            0.3690    -6.7877    -3.1448 H       
@<TRIPOS>BOND
   1    1    2 1
   2    1    9 1
   3    1   24 1
   4    1   25 1
   5    2    3 ar
   6    2    7 ar
   7    3    4 ar
   8    3   26 1
   9    4    5 ar
  10    4   27 1
  11    5    6 ar
  12    5    8 1
  13    6    7 ar
  14    7   28 1
  15    8   16 1
  16    9   10 1
  17    9   13 am
  18   10   11 1
  19   10   29 1
  20   10   30 1
  21   11   12 1
  22   11   14 1
  23   11   31 1
  24   12   13 1
  25   13   15 2
  26   14   32 1
  27   14   33 1
  28   14   34 1
  29   16   17 1
  30   16   18 1
  31   16   35 1
  32   17   36 1
  33   17   37 1
  34   17   38 1
  35   18   19 1
  36   18   23 1
  37   18   39 1
  38   19   20 1
  39   19   40 1
  40   19   41 1
  41   20   21 1
  42   20   42 1
  43   20   43 1
  44   21   22 1
  45   21   44 1
  46   21   45 1
  47   22   23 1
  48   22   46 1
  49   22   47 1
  50   23   48 1
  51   23   49 1

#	End of record

