#	Name: ASD03090056
#	Creating user name:	WinNT
#	Creation time:	15. 06. 2019 20:28

#	Modifying user name:	WinNT
#	Modification time:	15. 06. 2019 20:28

#	Program:	/corina/corina34_cracker 3.40 0067  02.08.2006

@<TRIPOS>MOLECULE
ASD03090056
  39   41    0    0    0
SMALL
NO_CHARGES


@<TRIPOS>ATOM
   1 N1            -0.0162     1.3319    -0.4358 N.am    
   2 C2            -0.0089     0.1162     0.1461 C.2     
   3 O3             0.9933    -0.2836     0.7065 O.2     
   4 N4            -1.1125    -0.6564     0.1067 N.am    
   5 S5            -2.4202    -3.0079     0.7441 S.3     
   6 C6            -1.1050    -1.9107     0.7070 C.2     
   7 N7            -0.0997    -2.4448     1.3325 N.2     
   8 N8            -0.2595    -3.5972     1.8225 N.2     
   9 C9            -1.4218    -4.1428     1.6534 C.2     
  10 C10           -1.8453    -5.5030     2.1450 C.3     
  11 F11           -0.8220    -6.0577     2.9212 F       
  12 F12           -3.0035    -5.3790     2.9199 F       
  13 F13           -2.1035    -6.3349     1.0503 F       
  14 C14            1.0929     2.1735    -0.3102 C.ar    
  15 C15            0.9168     3.5622    -0.2367 C.ar    
  16 C16            2.0297     4.3942    -0.1116 C.ar    
  17 C17            3.2989     3.8445    -0.0607 C.ar    
  18 C18            3.4671     2.4681    -0.1344 C.ar    
  19 C19            2.3701     1.6367    -0.2523 C.ar    
  20 O20           -0.7328     5.4534    -0.3363 O.3     
  21 C21           -0.4403     4.1419    -0.2921 C.2     
  22 N22           -1.5640     3.4631    -0.3068 N.2     
  23 C23           -2.5877     4.3293    -0.3605 C.2     
  24 C24           -2.0751     5.5727    -0.3791 C.2     
  25 O25            4.3842     4.6546     0.0612 O.3     
  26 C26            5.6644     4.0214     0.1077 C.3     
  27 C27            6.7550     5.0856     0.2456 C.3     
  28 H28           -0.7894     1.6212    -0.9450 H       
  29 H29           -1.9121    -0.3374    -0.3404 H       
  30 H30            1.9012     5.4650    -0.0548 H       
  31 H31            4.4601     2.0452    -0.0946 H       
  32 H32            2.5078     0.5668    -0.3042 H       
  33 H33           -3.6366     4.0735    -0.3845 H       
  34 H34           -2.6348     6.4954    -0.4207 H       
  35 H35            5.7051     3.3465     0.9626 H       
  36 H36            5.8232     3.4552    -0.8101 H       
  37 H37            6.7143     5.7605    -0.6093 H       
  38 H38            6.5962     5.6518     1.1634 H       
  39 H39            7.7315     4.6026     0.2810 H       
@<TRIPOS>BOND
   1    1    2 am
   2    1   14 1
   3    1   28 1
   4    2    3 2
   5    2    4 am
   6    4    6 1
   7    4   29 1
   8    5    6 1
   9    5    9 1
  10    6    7 2
  11    7    8 1
  12    8    9 2
  13    9   10 1
  14   10   11 1
  15   10   12 1
  16   10   13 1
  17   14   15 ar
  18   14   19 ar
  19   15   16 ar
  20   15   21 1
  21   16   17 ar
  22   16   30 1
  23   17   18 ar
  24   17   25 1
  25   18   19 ar
  26   18   31 1
  27   19   32 1
  28   20   21 1
  29   20   24 1
  30   21   22 2
  31   22   23 1
  32   23   24 2
  33   23   33 1
  34   24   34 1
  35   25   26 1
  36   26   27 1
  37   26   35 1
  38   26   36 1
  39   27   37 1
  40   27   38 1
  41   27   39 1

#	End of record

