#	Name: ASD03091569
#	Creating user name:	WinNT
#	Creation time:	15. 06. 2019 20:31

#	Modifying user name:	WinNT
#	Modification time:	15. 06. 2019 20:31

#	Program:	/corina/corina34_cracker 3.40 0067  02.08.2006

@<TRIPOS>MOLECULE
ASD03091569
  47   49    0    0    0
SMALL
NO_CHARGES


@<TRIPOS>ATOM
   1 C1            -0.0125     1.2981     0.0267 C.2     
   2 C2            -0.0197    -0.0200     0.3161 C.2     
   3 N3            -1.2066    -0.5828     0.2486 N.2     
   4 C4            -2.2049     0.1806    -0.0808 C.2     
   5 S5            -1.6665     1.7824    -0.3390 S.3     
   6 N6            -3.5167    -0.2411    -0.1996 N.3     
   7 C7            -3.6379    -1.6757     0.0977 C.3     
   8 C8            -4.4041     0.5475     0.6676 C.3     
   9 C9            -5.8501     0.0889     0.4609 C.3     
  10 O10           -5.9423    -1.3138     0.7241 O.3     
  11 C11           -5.0915    -2.1120    -0.1033 C.3     
  12 C12           -5.2406    -3.5853     0.2816 C.3     
  13 C13           -6.7692     0.8499     1.4185 C.3     
  14 C14            1.1711     2.1798     0.0233 C.ar    
  15 C15            1.1995     3.3506     0.7932 C.ar    
  16 C16            2.3002     1.8668    -0.7450 C.ar    
  17 C17            3.3835     2.7184    -0.7178 C.ar    
  18 N18            3.3663     3.8143     0.0179 N.ar    
  19 C19            2.3255     4.1440     0.7604 C.ar    
  20 C20            1.2267    -0.7825     0.6853 C.3     
  21 N21            1.4846    -0.6321     2.1237 N.3     
  22 C22            0.0165     3.7359     1.6435 C.3     
  23 C23            4.6047     2.3938    -1.5390 C.3     
  24 H24           -2.9918    -2.2422    -0.5729 H       
  25 H25           -3.3422    -1.8596     1.1306 H       
  26 H26           -4.1206     0.3991     1.7096 H       
  27 H27           -4.3173     1.6037     0.4130 H       
  28 H28           -6.1511     0.2867    -0.5678 H       
  29 H29           -5.3705    -1.9781    -1.1484 H       
  30 H30           -6.2766    -3.8942     0.1419 H       
  31 H31           -4.5920    -4.1930    -0.3493 H       
  32 H32           -4.9596    -3.7181     1.3263 H       
  33 H33           -6.6956     1.9191     1.2200 H       
  34 H34           -7.7985     0.5230     1.2709 H       
  35 H35           -6.4684     0.6497     2.4469 H       
  36 H36            2.3214     0.9717    -1.3491 H       
  37 H37            2.3552     5.0507     1.3465 H       
  38 H38            1.0904    -1.8378     0.4490 H       
  39 H39            2.0730    -0.3902     0.1215 H       
  40 H40            2.3159    -1.1347     2.3964 H       
  41 H41            1.5506     0.3417     2.3793 H       
  42 H42            0.0759     3.2222     2.6030 H       
  43 H43            0.0225     4.8135     1.8074 H       
  44 H44           -0.9046     3.4509     1.1351 H       
  45 H45            4.5064     2.8404    -2.5285 H       
  46 H46            5.4908     2.7939    -1.0462 H       
  47 H47            4.7002     1.3124    -1.6363 H       
@<TRIPOS>BOND
   1    1    2 2
   2    1   14 1
   3    1    5 1
   4    2    3 1
   5    2   20 1
   6    3    4 2
   7    4    5 1
   8    4    6 1
   9    6    7 1
  10    6    8 1
  11    7   11 1
  12    7   24 1
  13    7   25 1
  14    8    9 1
  15    8   26 1
  16    8   27 1
  17    9   10 1
  18    9   13 1
  19    9   28 1
  20   10   11 1
  21   11   12 1
  22   11   29 1
  23   12   30 1
  24   12   31 1
  25   12   32 1
  26   13   33 1
  27   13   34 1
  28   13   35 1
  29   14   15 ar
  30   14   16 ar
  31   15   22 1
  32   15   19 ar
  33   16   17 ar
  34   16   36 1
  35   17   18 ar
  36   17   23 1
  37   18   19 ar
  38   19   37 1
  39   20   21 1
  40   20   38 1
  41   20   39 1
  42   21   40 1
  43   21   41 1
  44   22   42 1
  45   22   43 1
  46   22   44 1
  47   23   45 1
  48   23   46 1
  49   23   47 1

#	End of record

