#	Name: ASD01208047
#	Creating user name:	WinNT
#	Creation time:	15. 06. 2019 19:09

#	Modifying user name:	WinNT
#	Modification time:	15. 06. 2019 19:09

#	Program:	/corina/corina34_cracker 3.40 0067  02.08.2006

@<TRIPOS>MOLECULE
ASD01208047
  65   69    0    0    0
SMALL
NO_CHARGES


@<TRIPOS>ATOM
   1 C1            -0.2220     1.5296     0.1620 C.ar    
   2 C2            -0.1528     0.1441     0.1529 C.ar    
   3 C3            -1.3160    -0.6131     0.1699 C.ar    
   4 C4            -2.5513     0.0124     0.1956 C.ar    
   5 C5            -2.6255     1.4062     0.2049 C.ar    
   6 C6            -1.4532     2.1634     0.1940 C.ar    
   7 C7            -3.9412     2.0780     0.2324 C.2     
   8 C8            -4.1488     3.4274     0.2433 C.2     
   9 N9            -5.1607     1.4524     0.2452 N.pl3   
  10 C10           -6.1427     2.4126     0.2703 C.2     
  11 C11           -5.5288     3.6460     0.2696 C.2     
  12 O12            0.9200     2.2662     0.1453 O.3     
  13 C13            0.7763     3.6835     0.0327 C.3     
  14 C14            2.0463     4.2778    -0.5796 C.3     
  15 O15            3.1438     4.0789     0.3136 O.3     
  16 C16            0.5497     4.2850     1.4211 C.3     
  17 O17           -1.2425    -1.9699     0.1608 O.3     
  18 C18           -1.6936    -2.6252    -0.9391 C.ar    
  19 C19           -1.7591    -4.0160    -0.9408 C.ar    
  20 C20           -2.0940    -1.9064    -2.0583 C.ar    
  21 C21           -2.5525    -2.5673    -3.1767 C.ar    
  22 C22           -2.6148    -3.9628    -3.1856 C.ar    
  23 C23           -2.2168    -4.6840    -2.0564 C.ar    
  24 C24           -3.1060    -4.6737    -4.3823 C.2     
  25 N25           -2.8802    -4.1637    -5.6092 N.am    
  26 O26           -3.7143    -5.7195    -4.2611 O.2     
  27 C27           -7.5926     2.1673     0.2899 C.2     
  28 C28            4.3851     4.6001    -0.1656 C.3     
  29 N29           -8.5166     3.0889     0.3138 N.2     
  30 C30           -9.7646     2.6805     0.3281 C.2     
  31 C31           -9.9453     1.3558     0.3164 C.2     
  32 S32           -8.3620     0.5826     0.2772 S.3     
  33 F33           -1.3735    -4.7112     0.1515 F       
  34 C34           -3.2538    -4.7969    -6.8824 C.3     
  35 C35           -2.7747    -3.8650    -8.0154 C.3     
  36 C36           -1.6572    -3.0333    -7.3322 C.3     
  37 C37           -2.2235    -2.8755    -5.8966 C.3     
  38 H38            0.8090    -0.3468     0.1321 H       
  39 H39           -3.4560    -0.5774     0.2081 H       
  40 H40           -1.5061     3.2421     0.2011 H       
  41 H41           -3.3835     4.1893     0.2338 H       
  42 H42           -5.3057     0.4934     0.2375 H       
  43 H43           -6.0235     4.6060     0.2862 H       
  44 H44           -0.0766     3.9126    -0.6062 H       
  45 H45            2.2567     3.7855    -1.5290 H       
  46 H46            1.9034     5.3453    -0.7476 H       
  47 H47           -0.3550     3.8616     1.8573 H       
  48 H48            1.4026     4.0560     2.0599 H       
  49 H49            0.4401     5.3661     1.3352 H       
  50 H50           -2.0462    -0.8274    -2.0515 H       
  51 H51           -2.8638    -2.0070    -4.0459 H       
  52 H52           -2.2636    -5.7630    -2.0595 H       
  53 H53            4.6440     4.1145    -1.1065 H       
  54 H54            4.2908     5.6742    -0.3251 H       
  55 H55            5.1673     4.4092     0.5691 H       
  56 H56          -10.5938     3.3721     0.3483 H       
  57 H57          -10.8979     0.8471     0.3252 H       
  58 H58           -2.7669    -5.7681    -6.9703 H       
  59 H59           -4.3360    -4.9164    -6.9335 H       
  60 H60           -2.3713    -4.4440    -8.8462 H       
  61 H61           -3.5854    -3.2188    -8.3520 H       
  62 H62           -0.7132    -3.5782    -7.3257 H       
  63 H63           -1.5428    -2.0624    -7.8141 H       
  64 H64           -2.9453    -2.0594    -5.8611 H       
  65 H65           -1.4150    -2.6991    -5.1871 H       
@<TRIPOS>BOND
   1    1    2 ar
   2    1   12 1
   3    1    6 ar
   4    2    3 ar
   5    2   38 1
   6    3    4 ar
   7    3   17 1
   8    4    5 ar
   9    4   39 1
  10    5    6 ar
  11    5    7 1
  12    6   40 1
  13    7    8 2
  14    7    9 1
  15    8   11 1
  16    8   41 1
  17    9   10 1
  18    9   42 1
  19   10   11 2
  20   10   27 1
  21   11   43 1
  22   12   13 1
  23   13   14 1
  24   13   16 1
  25   13   44 1
  26   14   15 1
  27   14   45 1
  28   14   46 1
  29   15   28 1
  30   16   47 1
  31   16   48 1
  32   16   49 1
  33   17   18 1
  34   18   19 ar
  35   18   20 ar
  36   19   33 1
  37   19   23 ar
  38   20   21 ar
  39   20   50 1
  40   21   22 ar
  41   21   51 1
  42   22   23 ar
  43   22   24 1
  44   23   52 1
  45   24   25 am
  46   24   26 2
  47   25   34 1
  48   25   37 1
  49   27   29 2
  50   27   32 1
  51   28   53 1
  52   28   54 1
  53   28   55 1
  54   29   30 1
  55   30   31 2
  56   30   56 1
  57   31   32 1
  58   31   57 1
  59   34   35 1
  60   34   58 1
  61   34   59 1
  62   35   36 1
  63   35   60 1
  64   35   61 1
  65   36   37 1
  66   36   62 1
  67   36   63 1
  68   37   64 1
  69   37   65 1

#	End of record

