#	Name: ASD02500868
#	Creating user name:	WinNT
#	Creation time:	15. 06. 2019 20:23

#	Modifying user name:	WinNT
#	Modification time:	15. 06. 2019 20:23

#	Program:	/corina/corina34_cracker 3.40 0067  02.08.2006

@<TRIPOS>MOLECULE
ASD02500868
  34   35    0    0    0
SMALL
NO_CHARGES


@<TRIPOS>ATOM
   1 C1            -0.0175     1.4009     0.0775 C.ar    
   2 C2            -0.1590     0.1919    -0.6148 C.ar    
   3 C3            -1.3430    -0.5065    -0.5402 C.ar    
   4 C4            -2.3970    -0.0136     0.2205 C.ar    
   5 C5            -2.2621     1.1861     0.9097 C.ar    
   6 C6            -1.0805     1.8898     0.8470 C.ar    
   7 O7            -3.5627    -0.7062     0.2901 O.3     
   8 C8            -4.6050    -0.1433     1.0894 C.3     
   9 C9             1.2430     2.1503     0.0017 C.2     
  10 C10            1.2231     3.5042    -0.0933 C.2     
  11 C11            0.0617     4.3780    -0.2963 C.2     
  12 N12            0.3383     5.6702    -0.3505 N.am    
  13 C13            1.6058     6.0790    -0.2220 C.2     
  14 S14            2.5946     4.6262     0.0072 S.3     
  15 O15           -1.0708     3.9460    -0.4069 O.2     
  16 S16            2.1646     7.6967    -0.2641 S.2     
  17 C17           -0.7353     6.6468    -0.5502 C.3     
  18 C18           -0.7787     7.5924     0.6224 C.2     
  19 O19           -1.6898     8.5776     0.6567 O.3     
  20 O20            0.0065     7.4637     1.5316 O.2     
  21 C21           -0.4732     7.4375    -1.8336 C.3     
  22 H22            0.6591    -0.1918    -1.2063 H       
  23 H23           -1.4534    -1.4389    -1.0739 H       
  24 H24           -3.0843     1.5646     1.4989 H       
  25 H25           -0.9767     2.8216     1.3831 H       
  26 H26           -5.4783    -0.7949     1.0589 H       
  27 H27           -4.2607    -0.0452     2.1189 H       
  28 H28           -4.8710     0.8394     0.7000 H       
  29 H29            2.1860     1.6242     0.0216 H       
  30 H30           -1.6893     6.1262    -0.6327 H       
  31 H31           -1.6788     9.1590     1.4294 H       
  32 H32           -0.4417     6.7536    -2.6817 H       
  33 H33           -1.2719     8.1642    -1.9822 H       
  34 H34            0.4809     7.9582    -1.7511 H       
@<TRIPOS>BOND
   1    1    2 ar
   2    1    9 1
   3    1    6 ar
   4    2    3 ar
   5    2   22 1
   6    3    4 ar
   7    3   23 1
   8    4    5 ar
   9    4    7 1
  10    5    6 ar
  11    5   24 1
  12    6   25 1
  13    7    8 1
  14    8   26 1
  15    8   27 1
  16    8   28 1
  17    9   10 2
  18    9   29 1
  19   10   11 1
  20   10   14 1
  21   11   12 am
  22   11   15 2
  23   12   13 am
  24   12   17 1
  25   13   14 1
  26   13   16 2
  27   17   18 1
  28   17   21 1
  29   17   30 1
  30   18   19 1
  31   18   20 2
  32   19   31 1
  33   21   32 1
  34   21   33 1
  35   21   34 1

#	End of record

