#	Name: ASD03430514
#	Creating user name:	WinNT
#	Creation time:	15. 06. 2019 20:41

#	Modifying user name:	WinNT
#	Modification time:	15. 06. 2019 20:41

#	Program:	/corina/corina34_cracker 3.40 0067  02.08.2006

@<TRIPOS>MOLECULE
ASD03430514
  41   45    0    0    0
SMALL
NO_CHARGES


@<TRIPOS>ATOM
   1 C1            -0.0184     1.5028     0.0103 C.2     
   2 C2             0.0021    -0.0041     0.0020 C.3     
   3 N3             1.0927     2.1646     0.0033 N.2     
   4 N4            -1.2140     2.1716     0.0196 N.pl3   
   5 O5             1.1816    -0.4681     0.6619 O.3     
   6 O6            -1.0006    -4.8975     5.1794 O.3     
   7 C7            -1.8250    -5.6119     6.1191 C.3     
   8 O8            -2.7305    -4.6075     6.6132 O.3     
   9 C9            -2.8373    -3.6868     5.6101 C.ar    
  10 C10           -1.7726    -3.8647     4.7296 C.ar    
  11 C11           -3.7733    -2.6964     5.3726 C.ar    
  12 C12           -3.6588    -1.8711     4.2578 C.ar    
  13 C13           -2.5857    -2.0519     3.3905 C.ar    
  14 C14           -1.6542    -3.0428     3.6214 C.ar    
  15 O15           -4.4708    -0.8601     3.8349 O.3     
  16 C16           -2.7208    -1.0054     2.3169 C.3     
  17 C17           -3.7499    -0.0298     2.9042 C.3     
  18 N18           -1.1807    -0.5123     0.7012 N.am    
  19 C19           -1.4151    -0.3275     2.0159 C.2     
  20 C20           -3.1792    -1.5828     1.0106 C.ar    
  21 C21           -4.2866    -2.3081     0.6268 C.ar    
  22 C22           -4.4302    -2.7080    -0.6911 C.ar    
  23 C23           -3.4603    -2.3778    -1.6199 C.ar    
  24 C24           -2.3508    -1.6514    -1.2402 C.ar    
  25 C25           -2.1975    -1.2443     0.0831 C.ar    
  26 O26           -0.7097     0.2693     2.8015 O.2     
  27 Cl27          -5.5015    -2.7210     1.7962 Cl      
  28 H28           -0.0028    -0.3618    -1.0276 H       
  29 H29            1.0795     3.1345     0.0086 H       
  30 H30           -2.0474     1.6752     0.0209 H       
  31 H31           -1.2271     3.1415     0.0249 H       
  32 H32            1.2526    -0.1868     1.5844 H       
  33 H33           -2.3740    -6.4092     5.6181 H       
  34 H34           -1.2195    -6.0143     6.9312 H       
  35 H35           -4.5985    -2.5629     6.0565 H       
  36 H36           -0.8304    -3.1778     2.9362 H       
  37 H37           -4.4141     0.3468     2.1263 H       
  38 H38           -3.2536     0.7912     3.4217 H       
  39 H39           -5.2977    -3.2760    -0.9930 H       
  40 H40           -3.5722    -2.6900    -2.6477 H       
  41 H41           -1.5977    -1.3980    -1.9716 H       
@<TRIPOS>BOND
   1    1    2 1
   2    1    3 2
   3    1    4 1
   4    2    5 1
   5    2   18 1
   6    2   28 1
   7    3   29 1
   8    4   30 1
   9    4   31 1
  10    5   32 1
  11    6    7 1
  12    6   10 1
  13    7    8 1
  14    7   33 1
  15    7   34 1
  16    8    9 1
  17    9   10 ar
  18    9   11 ar
  19   10   14 ar
  20   11   12 ar
  21   11   35 1
  22   12   13 ar
  23   12   15 1
  24   13   14 ar
  25   13   16 1
  26   14   36 1
  27   15   17 1
  28   16   17 1
  29   16   19 1
  30   16   20 1
  31   17   37 1
  32   17   38 1
  33   18   19 am
  34   18   25 1
  35   19   26 2
  36   20   21 ar
  37   20   25 ar
  38   21   22 ar
  39   21   27 1
  40   22   23 ar
  41   22   39 1
  42   23   24 ar
  43   23   40 1
  44   24   25 ar
  45   24   41 1

#	End of record

