#	Name: ASD01810103
#	Creating user name:	WinNT
#	Creation time:	15. 06. 2019 19:23

#	Modifying user name:	WinNT
#	Modification time:	15. 06. 2019 19:23

#	Program:	/corina/corina34_cracker 3.40 0067  02.08.2006

@<TRIPOS>MOLECULE
ASD01810103
  59   63    0    0    0
SMALL
NO_CHARGES


@<TRIPOS>ATOM
   1 C1            -0.0167     1.3806     0.0096 C.ar    
   2 C2             0.0021    -0.0041     0.0020 C.ar    
   3 C3             1.2053    -0.6843    -0.0126 C.ar    
   4 C4             2.3974     0.0229    -0.0202 C.ar    
   5 C5             2.3780     1.4194    -0.0130 C.ar    
   6 C6             1.1667     2.0932     0.0022 C.ar    
   7 N7             3.7363    -0.3610    -0.0346 N.am    
   8 C8             4.4963     0.7503    -0.0361 C.2     
   9 N9             3.7061     1.8403    -0.0233 N.am    
  10 O10            5.7131     0.7670    -0.0478 O.2     
  11 C11            4.1646     3.2317    -0.0210 C.3     
  12 C12            5.0216     3.4860     1.2222 C.3     
  13 C13            5.5475     4.9228     1.1881 C.3     
  14 N14            6.3454     5.1245    -0.0281 N.3     
  15 C15            5.5315     4.9321    -1.2351 C.3     
  16 C16            5.0051     3.4956    -1.2733 C.3     
  17 C17            6.9807     6.4490    -0.0272 C.3     
  18 C18            7.8998     6.5745    -1.2445 C.3     
  19 C19            8.5869     7.9435    -1.2216 C.3     
  20 N20            7.5573     8.9879    -1.1327 N.am    
  21 C21            6.5658     8.9122    -0.0511 C.3     
  22 C22            5.9013     7.5323    -0.0871 C.3     
  23 S23            7.5157    10.2272    -2.2303 S.o2    
  24 C24            6.4924     9.7061    -3.5667 C.ar    
  25 C25            5.1339     9.9602    -3.5369 C.ar    
  26 C26            4.3311     9.5513    -4.5854 C.ar    
  27 C27            4.8869     8.8888    -5.6638 C.ar    
  28 C28            6.2455     8.6355    -5.6940 C.ar    
  29 C29            7.0490     9.0482    -4.6476 C.ar    
  30 O30            6.8332    11.3010    -1.5974 O.2     
  31 O31            8.8315    10.3437    -2.7541 O.2     
  32 Br32          -1.6247    -0.9681     0.0123 Br      
  33 H33           -0.9605     1.9055     0.0169 H       
  34 H34            1.2165    -1.7642    -0.0178 H       
  35 H35            1.1482     3.1730     0.0074 H       
  36 H36            4.0650    -1.2735    -0.0418 H       
  37 H37            3.3029     3.8992    -0.0122 H       
  38 H38            4.4165     3.3412     2.1172 H       
  39 H39            5.8614     2.7913     1.2336 H       
  40 H40            4.7074     5.6172     1.1906 H       
  41 H41            6.1698     5.1027     2.0647 H       
  42 H42            4.6915     5.6264    -1.2213 H       
  43 H43            6.1422     5.1187    -2.1185 H       
  44 H44            5.8447     2.8010    -1.3012 H       
  45 H45            4.3883     3.3575    -2.1613 H       
  46 H46            7.5664     6.5703     0.8840 H       
  47 H47            8.6541     5.7883    -1.2133 H       
  48 H48            7.3108     6.4783    -2.1565 H       
  49 H49            9.2471     8.0066    -0.3565 H       
  50 H50            9.1653     8.0774    -2.1357 H       
  51 H51            7.0611     9.0542     0.9094 H       
  52 H52            5.8105     9.6852    -0.1930 H       
  53 H53            5.3311     7.4271    -1.0101 H       
  54 H54            5.2332     7.4278     0.7677 H       
  55 H55            4.6997    10.4778    -2.6943 H       
  56 H56            3.2697     9.7492    -4.5617 H       
  57 H57            4.2596     8.5687    -6.4826 H       
  58 H58            6.6796     8.1175    -6.5364 H       
  59 H59            8.1104     8.8503    -4.6712 H       
@<TRIPOS>BOND
   1    1    2 ar
   2    1    6 ar
   3    1   33 1
   4    2    3 ar
   5    2   32 1
   6    3    4 ar
   7    3   34 1
   8    4    5 ar
   9    4    7 1
  10    5    6 ar
  11    5    9 1
  12    6   35 1
  13    7    8 am
  14    7   36 1
  15    8    9 am
  16    8   10 2
  17    9   11 1
  18   11   12 1
  19   11   16 1
  20   11   37 1
  21   12   13 1
  22   12   38 1
  23   12   39 1
  24   13   14 1
  25   13   40 1
  26   13   41 1
  27   14   15 1
  28   14   17 1
  29   15   16 1
  30   15   42 1
  31   15   43 1
  32   16   44 1
  33   16   45 1
  34   17   18 1
  35   17   22 1
  36   17   46 1
  37   18   19 1
  38   18   47 1
  39   18   48 1
  40   19   20 1
  41   19   49 1
  42   19   50 1
  43   20   21 1
  44   20   23 am
  45   21   22 1
  46   21   51 1
  47   21   52 1
  48   22   53 1
  49   22   54 1
  50   23   30 2
  51   23   31 2
  52   23   24 1
  53   24   25 ar
  54   24   29 ar
  55   25   26 ar
  56   25   55 1
  57   26   27 ar
  58   26   56 1
  59   27   28 ar
  60   27   57 1
  61   28   29 ar
  62   28   58 1
  63   29   59 1

#	End of record

