#	Name: ASD03090810
#	Creating user name:	WinNT
#	Creation time:	15. 06. 2019 20:29

#	Modifying user name:	WinNT
#	Modification time:	15. 06. 2019 20:29

#	Program:	/corina/corina34_cracker 3.40 0067  02.08.2006

@<TRIPOS>MOLECULE
ASD03090810
  43   46    0    0    0
SMALL
NO_CHARGES


@<TRIPOS>ATOM
   1 N1            -0.0164     1.3555     0.0095 N.am    
   2 C2             0.0021    -0.0041     0.0020 C.2     
   3 N3             1.0941    -0.7064    -0.0122 N.2     
   4 C4             2.3154    -0.1181    -0.0207 C.ar    
   5 C5             2.3952     1.2937    -0.0139 C.ar    
   6 C6             1.1403     2.0605     0.0022 C.2     
   7 O7             1.1410     3.2775     0.0091 O.2     
   8 C8             3.5007    -0.8557    -0.0356 C.ar    
   9 N9             4.6637    -0.2396    -0.0430 N.ar    
  10 C10            4.7734     1.0821    -0.0370 C.ar    
  11 C11            3.6485     1.8973    -0.0223 C.ar    
  12 N12            6.0385     1.6630    -0.0451 N.3     
  13 C13            7.0895     0.6359    -0.0598 C.3     
  14 C14            8.2474     1.0740    -0.9441 C.3     
  15 C15            9.0995     2.1629    -0.3241 C.3     
  16 N16            8.6697     2.4712     1.0474 N.3     
  17 C17            7.5014     3.3643     1.0194 C.3     
  18 C18            6.2111     2.5636     1.1010 C.3     
  19 C19            8.5556     1.2932     1.8803 C.3     
  20 C20            7.5019     0.3253     1.3675 C.3     
  21 C21           -1.3157    -0.7351     0.0112 C.3     
  22 C22           -1.0621    -2.2439     0.0006 C.3     
  23 H23           -0.8653     1.8247     0.0161 H       
  24 H24            3.4632    -1.9351    -0.0406 H       
  25 H25            3.7447     2.9730    -0.0179 H       
  26 H26            6.6654    -0.2744    -0.4836 H       
  27 H27            8.8788     0.2090    -1.1470 H       
  28 H28            7.8462     1.4398    -1.8893 H       
  29 H29           10.1387     1.8346    -0.3060 H       
  30 H30            9.0229     3.0643    -0.9321 H       
  31 H31            7.5529     4.0495     1.8655 H       
  32 H32            7.5100     3.9379     0.0926 H       
  33 H33            5.3686     3.2543     1.1372 H       
  34 H34            6.2199     1.9721     2.0165 H       
  35 H35            9.5193     0.7847     1.9074 H       
  36 H36            8.2912     1.6000     2.8922 H       
  37 H37            6.6239     0.3841     2.0107 H       
  38 H38            7.9018    -0.6879     1.4082 H       
  39 H39           -1.8738    -0.4668     0.9083 H       
  40 H40           -1.8915    -0.4572    -0.8716 H       
  41 H41           -0.5040    -2.5122    -0.8964 H       
  42 H42           -0.4863    -2.5217     0.8834 H       
  43 H43           -2.0152    -2.7726     0.0073 H       
@<TRIPOS>BOND
   1    1    2 1
   2    1    6 am
   3    1   23 1
   4    2    3 2
   5    2   21 1
   6    3    4 1
   7    4    5 ar
   8    4    8 ar
   9    5    6 1
  10    5   11 ar
  11    6    7 2
  12    8    9 ar
  13    8   24 1
  14    9   10 ar
  15   10   11 ar
  16   10   12 1
  17   11   25 1
  18   12   13 1
  19   12   18 1
  20   13   14 1
  21   13   20 1
  22   13   26 1
  23   14   15 1
  24   14   27 1
  25   14   28 1
  26   15   16 1
  27   15   29 1
  28   15   30 1
  29   16   17 1
  30   16   19 1
  31   17   18 1
  32   17   31 1
  33   17   32 1
  34   18   33 1
  35   18   34 1
  36   19   20 1
  37   19   35 1
  38   19   36 1
  39   20   37 1
  40   20   38 1
  41   21   22 1
  42   21   39 1
  43   21   40 1
  44   22   41 1
  45   22   42 1
  46   22   43 1

#	End of record

