#	Name: ASD01209221
#	Creating user name:	WinNT
#	Creation time:	15. 06. 2019 19:11

#	Modifying user name:	WinNT
#	Modification time:	15. 06. 2019 19:11

#	Program:	/corina/corina34_cracker 3.40 0067  02.08.2006

@<TRIPOS>MOLECULE
ASD01209221
  70   73    0    0    0
SMALL
NO_CHARGES


@<TRIPOS>ATOM
   1 C1            -0.6610     1.5159    -0.3061 C.ar    
   2 C2            -0.4500     0.1534    -0.4124 C.ar    
   3 C3            -1.3755    -0.7403     0.1093 C.ar    
   4 C4            -2.5152    -0.2689     0.7396 C.ar    
   5 C5            -2.7292     1.1053     0.8480 C.ar    
   6 C6            -1.7902     1.9964     0.3244 C.ar    
   7 O7            -1.1633    -2.0783     0.0011 O.3     
   8 C8            -3.9429     1.6164     1.5191 C.2     
   9 N9            -4.8454     0.7542     2.0277 N.am    
  10 O10           -4.1272     2.8143     1.6123 O.2     
  11 C11           -5.9859     1.2344     2.6584 C.2     
  12 P12          -10.3787     0.0840     3.1375 P.3     
  13 O13          -10.7699     1.3660     2.5099 O.2     
  14 C14           -9.0826     0.3877     4.3830 C.3     
  15 N15           -6.9135     0.4940     3.1801 N.2     
  16 S16           -6.3673     2.8880     2.8662 S.3     
  17 C17           -7.8595     2.4506     3.6943 C.2     
  18 C18           -7.9313     1.1189     3.7419 C.2     
  19 C19            0.3487     2.4791    -0.8752 C.3     
  20 C20           -0.0105     2.7949    -2.3285 C.3     
  21 C21           -1.6696    -2.7187    -1.0852 C.ar    
  22 C22           -1.5727    -4.0992    -1.1858 C.ar    
  23 C23           -2.0886    -4.7478    -2.2909 C.ar    
  24 C24           -2.7012    -4.0226    -3.2963 C.ar    
  25 C25           -2.7990    -2.6469    -3.1985 C.ar    
  26 C26           -2.2894    -1.9938    -2.0930 C.ar    
  27 S27           -3.3577    -4.8531    -4.7049 S.o2    
  28 O28           -3.3229    -3.8756    -5.7357 O.2     
  29 O29           -2.5891    -6.0446    -4.7989 O.2     
  30 C30           -5.0709    -5.2351    -4.2473 C.3     
  31 O31           -0.9791     3.8433    -2.4605 O.3     
  32 C32           -0.2747     4.2899    -3.6264 C.3     
  33 C33            1.0089     3.7059    -3.0235 C.3     
  34 O34          -11.6619    -0.5788     3.8490 O.3     
  35 C35          -13.8909    -1.4710     4.1251 C.3     
  36 C36          -12.8854    -0.8413     3.1589 C.3     
  37 O37           -9.8146    -0.9159     2.0088 O.3     
  38 C38           -9.7321    -2.2299    -0.0178 C.3     
  39 C39          -10.5561    -1.2663     0.8385 C.3     
  40 H40            0.4379    -0.2168    -0.9034 H       
  41 H41           -3.2362    -0.9631     1.1456 H       
  42 H42           -1.9517     3.0611     0.4060 H       
  43 H43           -4.6983    -0.2017     1.9533 H       
  44 H44           -9.4913     0.9923     5.1927 H       
  45 H45           -8.7317    -0.5641     4.7816 H       
  46 H46           -8.5873     3.1398     4.0963 H       
  47 H47            0.3422     3.3994    -0.2911 H       
  48 H48            1.3413     2.0305    -0.8354 H       
  49 H49           -0.2574     1.9026    -2.9038 H       
  50 H50           -1.0941    -4.6661    -0.4010 H       
  51 H51           -2.0132    -5.8223    -2.3699 H       
  52 H52           -3.2779    -2.0828    -3.9852 H       
  53 H53           -2.3664    -0.9193    -2.0169 H       
  54 H54           -5.6054    -4.3091    -4.0351 H       
  55 H55           -5.5594    -5.7560    -5.0708 H       
  56 H56           -5.0775    -5.8697    -3.3611 H       
  57 H57           -0.5903     3.7883    -4.5412 H       
  58 H58           -0.2504     5.3749    -3.7282 H       
  59 H59            1.5433     4.3808    -2.3549 H       
  60 H60            1.6559     3.1989    -3.7393 H       
  61 H61          -14.8241    -1.6712     3.5988 H       
  62 H62          -13.4853    -2.4051     4.5137 H       
  63 H63          -14.0795    -0.7853     4.9511 H       
  64 H64          -13.2910     0.0929     2.7704 H       
  65 H65          -12.6968    -1.5269     2.3329 H       
  66 H66          -10.2976    -2.4972    -0.9104 H       
  67 H67           -8.7985    -1.7490    -0.3097 H       
  68 H68           -9.5131    -3.1300     0.5566 H       
  69 H69          -11.4897    -1.7472     1.1304 H       
  70 H70          -10.7751    -0.3662     0.2641 H       
@<TRIPOS>BOND
   1    1    2 ar
   2    1   19 1
   3    1    6 ar
   4    2    3 ar
   5    2   40 1
   6    3    4 ar
   7    3    7 1
   8    4    5 ar
   9    4   41 1
  10    5    6 ar
  11    5    8 1
  12    6   42 1
  13    7   21 1
  14    8    9 am
  15    8   10 2
  16    9   11 1
  17    9   43 1
  18   11   15 2
  19   11   16 1
  20   12   13 2
  21   12   34 1
  22   12   37 1
  23   12   14 1
  24   14   18 1
  25   14   44 1
  26   14   45 1
  27   15   18 1
  28   16   17 1
  29   17   18 2
  30   17   46 1
  31   19   20 1
  32   19   47 1
  33   19   48 1
  34   20   31 1
  35   20   33 1
  36   20   49 1
  37   21   22 ar
  38   21   26 ar
  39   22   23 ar
  40   22   50 1
  41   23   24 ar
  42   23   51 1
  43   24   25 ar
  44   24   27 1
  45   25   26 ar
  46   25   52 1
  47   26   53 1
  48   27   28 2
  49   27   29 2
  50   27   30 1
  51   30   54 1
  52   30   55 1
  53   30   56 1
  54   31   32 1
  55   32   33 1
  56   32   57 1
  57   32   58 1
  58   33   59 1
  59   33   60 1
  60   34   36 1
  61   35   36 1
  62   35   61 1
  63   35   62 1
  64   35   63 1
  65   36   64 1
  66   36   65 1
  67   37   39 1
  68   38   39 1
  69   38   66 1
  70   38   67 1
  71   38   68 1
  72   39   69 1
  73   39   70 1

#	End of record

