#	Name: ASD04910237
#	Creating user name:	WinNT
#	Creation time:	15. 06. 2019 20:55

#	Modifying user name:	WinNT
#	Modification time:	15. 06. 2019 20:55

#	Program:	/corina/corina34_cracker 3.40 0067  02.08.2006

@<TRIPOS>MOLECULE
ASD04910237
  45   45    0    0    0
SMALL
NO_CHARGES


@<TRIPOS>ATOM
   1 C1             0.4467     1.6367    -1.0754 C.2     
   2 C2             0.4211     0.1544    -0.8052 C.3     
   3 C3             1.8029    -0.4393    -1.0866 C.3     
   4 O4             1.4656     2.1642    -1.4543 O.2     
   5 O5            -0.6639     2.3701    -0.9006 O.3     
   6 C6             2.8917    -2.6176    -1.0046 C.2     
   7 C7             2.8665    -4.0740    -0.7391 C.ar    
   8 C8             4.0201    -4.8370    -0.9266 C.ar    
   9 C9             3.9982    -6.1921    -0.6794 C.ar    
  10 C10            2.8197    -6.8031    -0.2406 C.ar    
  11 C11            1.6648    -6.0377    -0.0532 C.ar    
  12 C12            1.6908    -4.6818    -0.2960 C.ar    
  13 O13            3.9164    -2.0870    -1.3856 O.2     
  14 N14            1.7781    -1.8803    -0.8238 N.am    
  15 C15            2.7947    -8.2529     0.0237 C.2     
  16 C16            4.0341    -9.0808    -0.1986 C.3     
  17 C17            3.7366   -10.5441     0.1352 C.3     
  18 C18            4.4663    -8.9692    -1.6620 C.3     
  19 C19            5.1577    -8.5698     0.7054 C.3     
  20 O20            1.7771    -8.7793     0.4200 O.2     
  21 C21           -0.5659     3.7916    -1.1800 C.3     
  22 C22           -1.9206     4.4558    -0.9259 C.3     
  23 H23            0.1561    -0.0203     0.2376 H       
  24 H24           -0.3168    -0.3202    -1.4520 H       
  25 H25            2.0679    -0.2646    -2.1293 H       
  26 H26            2.5408     0.0353    -0.4397 H       
  27 H27            4.9303    -4.3648    -1.2659 H       
  28 H28            4.8909    -6.7824    -0.8249 H       
  29 H29            0.7537    -6.5085     0.2854 H       
  30 H30            0.8001    -4.0896    -0.1470 H       
  31 H31            0.9601    -2.3038    -0.5197 H       
  32 H32            2.9361   -10.9081    -0.5088 H       
  33 H33            4.6330   -11.1429    -0.0256 H       
  34 H34            3.4287   -10.6236     1.1778 H       
  35 H35            4.5631    -7.9179    -1.9331 H       
  36 H36            5.4255    -9.4690    -1.7967 H       
  37 H37            3.7181    -9.4412    -2.2988 H       
  38 H38            4.9046    -8.7680     1.7470 H       
  39 H39            6.0872    -9.0806     0.4538 H       
  40 H40            5.2818    -7.4968     0.5596 H       
  41 H41            0.1857     4.2387    -0.5295 H       
  42 H42           -0.2789     3.9383    -2.2212 H       
  43 H43           -2.6722     4.0086    -1.5764 H       
  44 H44           -2.2076     4.3091     0.1154 H       
  45 H45           -1.8470     5.5229    -1.1356 H       
@<TRIPOS>BOND
   1    1    2 1
   2    1    4 2
   3    1    5 1
   4    2    3 1
   5    2   23 1
   6    2   24 1
   7    3   14 1
   8    3   25 1
   9    3   26 1
  10    5   21 1
  11    6    7 1
  12    6   13 2
  13    6   14 am
  14    7    8 ar
  15    7   12 ar
  16    8    9 ar
  17    8   27 1
  18    9   10 ar
  19    9   28 1
  20   10   11 ar
  21   10   15 1
  22   11   12 ar
  23   11   29 1
  24   12   30 1
  25   14   31 1
  26   15   16 1
  27   15   20 2
  28   16   17 1
  29   16   18 1
  30   16   19 1
  31   17   32 1
  32   17   33 1
  33   17   34 1
  34   18   35 1
  35   18   36 1
  36   18   37 1
  37   19   38 1
  38   19   39 1
  39   19   40 1
  40   21   22 1
  41   21   41 1
  42   21   42 1
  43   22   43 1
  44   22   44 1
  45   22   45 1

#	End of record

