#	Name: ASD08178319
#	Creating user name:	WinNT
#	Creation time:	15. 06. 2019 21:18

#	Modifying user name:	WinNT
#	Modification time:	15. 06. 2019 21:18

#	Program:	/corina/corina34_cracker 3.40 0067  02.08.2006

@<TRIPOS>MOLECULE
ASD08178319
  78   81    0    0    0
SMALL
NO_CHARGES


@<TRIPOS>ATOM
   1 N1            -0.0175     1.2958     0.4994 N.am    
   2 C2             0.1032     0.0070    -0.0093 C.2     
   3 C3            -0.9975    -0.6769    -0.3804 C.2     
   4 N4             1.3583    -0.5755    -0.1351 N.pl3   
   5 N5            -3.2230    -2.1315    -1.1596 N.pl3   
   6 C6            -1.9632    -2.7162    -1.2858 C.2     
   7 C7            -0.8701    -2.0369    -0.9173 C.2     
   8 C8            -1.8324    -4.1126    -1.8370 C.3     
   9 C9            -2.0283    -5.1269    -0.7084 C.3     
  10 C10           -1.8955    -6.5447    -1.2681 C.3     
  11 C11           -2.0913    -7.5589    -0.1395 C.3     
  12 C12           -1.9605    -8.9554    -0.6907 C.2     
  13 N13           -0.8670    -9.6444    -0.7743 N.2     
  14 N14           -0.9650   -10.8018    -1.2690 N.2     
  15 C15           -2.1426   -11.1979    -1.6478 C.2     
  16 S16           -3.2705    -9.9481    -1.3310 S.3     
  17 N17           -2.4394   -12.4340    -2.2118 N.am    
  18 C18           -1.4598   -13.3392    -2.4052 C.2     
  19 C19           -1.7815   -14.6787    -3.0163 C.3     
  20 O20           -0.3194   -13.0758    -2.0875 O.2     
  21 C21           -0.5212   -15.4979    -3.1229 C.ar    
  22 C22           -0.1432   -16.3235    -2.0805 C.ar    
  23 C23            1.0129   -17.0750    -2.1782 C.ar    
  24 C24            1.7909   -17.0012    -3.3185 C.ar    
  25 C25            1.4125   -16.1763    -4.3612 C.ar    
  26 C26            0.2540   -15.4282    -4.2653 C.ar    
  27 C27            1.0668     1.9337     0.9830 C.2     
  28 C28            0.9617     3.3714     1.4222 C.3     
  29 O29            2.1273     1.3505     1.0646 O.2     
  30 C30            2.3038     3.8446     1.9181 C.ar    
  31 C31            3.2019     4.4204     1.0388 C.ar    
  32 C32            2.6346     3.7080     3.2531 C.ar    
  33 C33            3.8658     4.1421     3.7081 C.ar    
  34 C34            4.7661     4.7122     2.8279 C.ar    
  35 C35            4.4328     4.8543     1.4936 C.ar    
  36 C36            5.4144     5.4760     0.5339 C.3     
  37 N37            6.2630     4.4300    -0.0425 N.pl3   
  38 C38            7.4982     4.0472     0.4062 C.2     
  39 C39            7.9199     3.0606    -0.4077 C.2     
  40 N40            6.9681     2.8469    -1.3283 N.2     
  41 C41            5.9701     3.6595    -1.1122 C.2     
  42 C42            4.7049     3.7331    -1.9277 C.3     
  43 H43           -0.8813     1.7370     0.5026 H       
  44 H44           -1.9731    -0.2242    -0.2826 H       
  45 H45            2.1397    -0.0182    -0.2759 H       
  46 H46            1.4531    -1.5394    -0.0820 H       
  47 H47           -3.3072    -1.2327    -0.8047 H       
  48 H48           -4.0151    -2.6237    -1.4266 H       
  49 H49            0.1056    -2.4897    -1.0150 H       
  50 H50           -2.5895    -4.2726    -2.6047 H       
  51 H51           -0.8412    -4.2401    -2.2721 H       
  52 H52           -1.2712    -4.9669     0.0593 H       
  53 H53           -3.0195    -4.9994    -0.2733 H       
  54 H54           -2.6525    -6.7046    -2.0358 H       
  55 H55           -0.9042    -6.6722    -1.7032 H       
  56 H56           -1.3343    -7.3990     0.6282 H       
  57 H57           -3.0826    -7.4314     0.2956 H       
  58 H58           -3.3515   -12.6447    -2.4659 H       
  59 H59           -2.5024   -15.2012    -2.3876 H       
  60 H60           -2.2049   -14.5324    -4.0100 H       
  61 H61           -0.7511   -16.3811    -1.1896 H       
  62 H62            1.3085   -17.7194    -1.3635 H       
  63 H63            2.6945   -17.5878    -3.3945 H       
  64 H64            2.0205   -16.1185    -5.2519 H       
  65 H65           -0.0416   -14.7837    -5.0799 H       
  66 H66            0.6483     3.9869     0.5790 H       
  67 H67            0.2283     3.4536     2.2244 H       
  68 H68            2.9418     4.5308    -0.0036 H       
  69 H69            1.9311     3.2626     3.9409 H       
  70 H70            4.1240     4.0361     4.7514 H       
  71 H71            5.7278     5.0517     3.1834 H       
  72 H72            4.8713     5.9835    -0.2633 H       
  73 H73            6.0361     6.1962     1.0657 H       
  74 H74            8.0322     4.4579     1.2504 H       
  75 H75            8.8597     2.5339    -0.3323 H       
  76 H76            3.9637     3.0514    -1.5106 H       
  77 H77            4.3162     4.7511    -1.9042 H       
  78 H78            4.9198     3.4499    -2.9581 H       
@<TRIPOS>BOND
   1    1    2 1
   2    1   27 am
   3    1   43 1
   4    2    3 2
   5    2    4 1
   6    3    7 1
   7    3   44 1
   8    4   45 1
   9    4   46 1
  10    5    6 1
  11    5   47 1
  12    5   48 1
  13    6    7 2
  14    6    8 1
  15    7   49 1
  16    8    9 1
  17    8   50 1
  18    8   51 1
  19    9   10 1
  20    9   52 1
  21    9   53 1
  22   10   11 1
  23   10   54 1
  24   10   55 1
  25   11   12 1
  26   11   56 1
  27   11   57 1
  28   12   13 2
  29   12   16 1
  30   13   14 1
  31   14   15 2
  32   15   16 1
  33   15   17 1
  34   17   18 am
  35   17   58 1
  36   18   19 1
  37   18   20 2
  38   19   21 1
  39   19   59 1
  40   19   60 1
  41   21   22 ar
  42   21   26 ar
  43   22   23 ar
  44   22   61 1
  45   23   24 ar
  46   23   62 1
  47   24   25 ar
  48   24   63 1
  49   25   26 ar
  50   25   64 1
  51   26   65 1
  52   27   28 1
  53   27   29 2
  54   28   30 1
  55   28   66 1
  56   28   67 1
  57   30   31 ar
  58   30   32 ar
  59   31   35 ar
  60   31   68 1
  61   32   33 ar
  62   32   69 1
  63   33   34 ar
  64   33   70 1
  65   34   35 ar
  66   34   71 1
  67   35   36 1
  68   36   37 1
  69   36   72 1
  70   36   73 1
  71   37   38 1
  72   37   41 1
  73   38   39 2
  74   38   74 1
  75   39   40 1
  76   39   75 1
  77   40   41 2
  78   41   42 1
  79   42   76 1
  80   42   77 1
  81   42   78 1

#	End of record

