#	Name: ASD03731550
#	Creating user name:	WinNT
#	Creation time:	15. 06. 2019 20:45

#	Modifying user name:	WinNT
#	Modification time:	15. 06. 2019 20:45

#	Program:	/corina/corina34_cracker 3.40 0067  02.08.2006

@<TRIPOS>MOLECULE
ASD03731550
  37   38    0    0    0
SMALL
NO_CHARGES


@<TRIPOS>ATOM
   1 C1            -0.0805     1.4481    -0.5044 C.2     
   2 C2            -0.0440    -0.0203    -0.3772 C.ar    
   3 C3             1.1801    -0.6987    -0.4187 C.ar    
   4 C4             1.2085    -2.0734    -0.2986 C.ar    
   5 C5             0.0253    -2.7825    -0.1374 C.ar    
   6 C6            -1.1933    -2.1113    -0.0962 C.ar    
   7 C7            -1.2312    -0.7393    -0.2089 C.ar    
   8 O8             0.9537     2.0721    -0.6456 O.2     
   9 N9            -1.2604     2.0985    -0.4697 N.am    
  10 S10           -1.3014     3.7478    -0.6126 S.o2    
  11 O11           -2.6803     4.0745    -0.5077 O.2     
  12 O12           -0.3644     4.2065     0.3522 O.2     
  13 C13           -0.6963     4.0718    -2.2917 C.3     
  14 F14            2.3311    -0.0091    -0.5764 F       
  15 O15            0.0574    -4.1341    -0.0202 O.3     
  16 C16            1.2604    -4.7568    -0.1396 C.ar    
  17 C17            2.0850    -4.9003     0.9728 C.ar    
  18 C18            3.3096    -5.5354     0.8464 C.ar    
  19 C19            3.7108    -6.0255    -0.3839 C.ar    
  20 C20            2.8913    -5.8823    -1.4891 C.ar    
  21 C21            1.6652    -5.2548    -1.3676 C.ar    
  22 O22            1.6894    -4.4177     2.1810 O.3     
  23 C23            2.5865    -4.6006     3.2781 C.3     
  24 F24            2.8104    -5.9676     3.4744 F       
  25 F25            3.8008    -3.9646     2.9986 F       
  26 Cl26           5.2457    -6.8212    -0.5408 Cl      
  27 Cl27          -2.6680    -3.0050     0.1045 Cl      
  28 H28            2.1519    -2.5982    -0.3305 H       
  29 H29           -2.1772    -0.2197    -0.1718 H       
  30 H30           -2.0857     1.6005    -0.3610 H       
  31 H31           -1.3510     3.5844    -3.0142 H       
  32 H32           -0.6897     5.1464    -2.4745 H       
  33 H33            0.3153     3.6794    -2.3955 H       
  34 H34            3.9512    -5.6476     1.7078 H       
  35 H35            3.2079    -6.2655    -2.4479 H       
  36 H36            1.0252    -5.1485    -2.2309 H       
  37 H37            2.1503    -4.1707     4.1797 H       
@<TRIPOS>BOND
   1    1    2 1
   2    1    8 2
   3    1    9 am
   4    2    3 ar
   5    2    7 ar
   6    3    4 ar
   7    3   14 1
   8    4    5 ar
   9    4   28 1
  10    5    6 ar
  11    5   15 1
  12    6    7 ar
  13    6   27 1
  14    7   29 1
  15    9   10 am
  16    9   30 1
  17   10   11 2
  18   10   12 2
  19   10   13 1
  20   13   31 1
  21   13   32 1
  22   13   33 1
  23   15   16 1
  24   16   17 ar
  25   16   21 ar
  26   17   18 ar
  27   17   22 1
  28   18   19 ar
  29   18   34 1
  30   19   20 ar
  31   19   26 1
  32   20   21 ar
  33   20   35 1
  34   21   36 1
  35   22   23 1
  36   23   24 1
  37   23   25 1
  38   23   37 1

#	End of record

