#	Name: ASD01120236
#	Creating user name:	WinNT
#	Creation time:	15. 06. 2019 18:59

#	Modifying user name:	WinNT
#	Modification time:	15. 06. 2019 18:59

#	Program:	/corina/corina34_cracker 3.40 0067  02.08.2006

@<TRIPOS>MOLECULE
ASD01120236
  67   68    0    0    0
SMALL
NO_CHARGES


@<TRIPOS>ATOM
   1 C1            -0.0167     1.3779     0.0096 C.ar    
   2 C2             0.0021    -0.0041     0.0020 C.ar    
   3 C3            -1.1857    -0.7116     0.0095 C.ar    
   4 C4            -2.3919    -0.0369     0.0251 C.ar    
   5 C5            -2.4106     1.3455     0.0336 C.ar    
   6 C6            -1.2232     2.0528     0.0305 C.ar    
   7 S7            -3.9483     2.2057     0.0529 S.o2    
   8 N8            -4.3616     2.4354     1.6399 N.am    
   9 C9            -3.6009     3.2212     2.4274 C.2     
  10 N10           -3.9372     3.4082     3.7191 N.am    
  11 O11           -3.6934     3.4955    -0.4862 O.2     
  12 O12           -4.9136     1.3142    -0.4882 O.2     
  13 O13           -2.6111     3.7615     1.9726 O.2     
  14 C14           -1.2711    12.3546    14.5899 C.ar    
  15 C15           -2.3592    13.1152    14.9742 C.ar    
  16 C16           -3.3632    12.5493    15.7379 C.ar    
  17 C17           -3.2787    11.2228    16.1170 C.ar    
  18 C18           -2.1903    10.4619    15.7326 C.ar    
  19 C19           -1.1894    11.0262    14.9643 C.ar    
  20 S20           -2.0826     8.7709    16.2159 S.o2    
  21 N21           -2.8158     7.8750    15.0317 N.am    
  22 C22           -2.2891     7.8373    13.7917 C.2     
  23 N23           -2.8858     7.1082    12.8280 N.am    
  24 O24           -0.7034     8.4306    16.1806 O.2     
  25 O25           -2.8874     8.6340    17.3790 O.2     
  26 O26           -1.2756     8.4610    13.5425 O.2     
  27 C27           -3.7082     4.3052     5.9828 C.3     
  28 C28           -0.1768    12.9715    13.7575 C.3     
  29 C29            1.2780     2.1491     0.0014 C.3     
  30 C30           -3.1103     4.2624     4.5751 C.3     
  31 C31           -2.5789     6.1322     9.1785 C.3     
  32 C32           -3.1769     6.1751    10.5861 C.3     
  33 C33           -3.4426     5.2401     8.2845 C.3     
  34 C34           -2.8446     5.1973     6.8768 C.3     
  35 C35           -2.3132     7.0671    11.4802 C.3     
  36 H36            0.9446    -0.5313    -0.0101 H       
  37 H37           -1.1711    -1.7915     0.0029 H       
  38 H38           -3.3198    -0.5895     0.0302 H       
  39 H39           -1.2378     3.1327     0.0372 H       
  40 H40           -5.1512     2.0044     2.0027 H       
  41 H41           -4.7269     2.9772     4.0819 H       
  42 H42           -2.4251    14.1518    14.6783 H       
  43 H43           -4.2131    13.1438    16.0388 H       
  44 H44           -4.0626    10.7809    16.7142 H       
  45 H45           -0.3391    10.4318    14.6640 H       
  46 H46           -3.6243     7.3774    15.2306 H       
  47 H47           -3.6943     6.6106    13.0269 H       
  48 H48           -4.7198     4.7085     5.9357 H       
  49 H49           -3.7379     3.2969     6.3958 H       
  50 H50            0.5829    13.3966    14.4135 H       
  51 H51            0.2751    12.2062    13.1265 H       
  52 H52           -0.5968    13.7580    13.1304 H       
  53 H53            1.5804     2.3405    -1.0282 H       
  54 H54            1.1397     3.0969     0.5217 H       
  55 H55            2.0505     1.5677     0.5048 H       
  56 H56           -2.0987     3.8591     4.6222 H       
  57 H57           -3.0806     5.2707     4.1621 H       
  58 H58           -2.5492     7.1405     8.7655 H       
  59 H59           -1.5674     5.7289     9.2255 H       
  60 H60           -4.1884     6.5784    10.5391 H       
  61 H61           -3.2066     5.1668    10.9991 H       
  62 H62           -3.4723     4.2318     8.6974 H       
  63 H63           -4.4541     5.6434     8.2374 H       
  64 H64           -1.8331     4.7940     6.9238 H       
  65 H65           -2.8149     6.2056     6.4638 H       
  66 H66           -2.2835     8.0754    11.0672 H       
  67 H67           -1.3017     6.6638    11.5272 H       
@<TRIPOS>BOND
   1    1    2 ar
   2    1   29 1
   3    1    6 ar
   4    2    3 ar
   5    2   36 1
   6    3    4 ar
   7    3   37 1
   8    4    5 ar
   9    4   38 1
  10    5    6 ar
  11    5    7 1
  12    6   39 1
  13    7    8 am
  14    7   11 2
  15    7   12 2
  16    8    9 am
  17    8   40 1
  18    9   10 am
  19    9   13 2
  20   10   30 1
  21   10   41 1
  22   14   15 ar
  23   14   28 1
  24   14   19 ar
  25   15   16 ar
  26   15   42 1
  27   16   17 ar
  28   16   43 1
  29   17   18 ar
  30   17   44 1
  31   18   19 ar
  32   18   20 1
  33   19   45 1
  34   20   21 am
  35   20   24 2
  36   20   25 2
  37   21   22 am
  38   21   46 1
  39   22   23 am
  40   22   26 2
  41   23   35 1
  42   23   47 1
  43   27   30 1
  44   27   34 1
  45   27   48 1
  46   27   49 1
  47   28   50 1
  48   28   51 1
  49   28   52 1
  50   29   53 1
  51   29   54 1
  52   29   55 1
  53   30   56 1
  54   30   57 1
  55   31   32 1
  56   31   33 1
  57   31   58 1
  58   31   59 1
  59   32   35 1
  60   32   60 1
  61   32   61 1
  62   33   34 1
  63   33   62 1
  64   33   63 1
  65   34   64 1
  66   34   65 1
  67   35   66 1
  68   35   67 1

#	End of record

