#	Name: ASD00840146
#	Creating user name:	WinNT
#	Creation time:	15. 06. 2019 18:37

#	Modifying user name:	WinNT
#	Modification time:	15. 06. 2019 18:37

#	Program:	/corina/corina34_cracker 3.40 0067  02.08.2006

@<TRIPOS>MOLECULE
ASD00840146
  70   74    0    0    0
SMALL
NO_CHARGES


@<TRIPOS>ATOM
   1 C1            -0.0441     1.3267     0.2246 C.2     
   2 N2             0.0008    -0.0049     0.0212 N.am    
   3 O3             0.9520     1.9196     0.5890 O.2     
   4 O4            -1.1916     2.0010     0.0186 O.3     
   5 N5             1.7115    -1.8595     2.1951 N.am    
   6 C6             1.6907    -0.6178     1.6830 C.2     
   7 C7             1.2506    -0.7375     0.2394 C.3     
   8 C8             1.0363    -2.2212     0.0438 C.ar    
   9 C9             0.6382    -2.9695    -1.0353 C.ar    
  10 C10            0.5275    -4.3591    -0.9158 C.ar    
  11 C11            0.8255    -4.9712     0.3081 C.ar    
  12 C12            1.2238    -4.2086     1.3846 C.ar    
  13 C13            1.3341    -2.8229     1.2637 C.ar    
  14 O14            1.9715     0.4070     2.2676 O.2     
  15 F15            0.7217    -6.3123     0.4338 F       
  16 C16            3.6052    -0.7727    -0.6420 C.ar    
  17 C17            2.3272    -0.2299    -0.6849 C.ar    
  18 C18            2.0558     0.7828    -1.5880 C.ar    
  19 C19            3.0776     1.2189    -2.4206 C.ar    
  20 C20            4.3242     0.6338    -2.3233 C.ar    
  21 N21            4.5527    -0.3304    -1.4517 N.ar    
  22 O22            3.8856    -1.7622     0.2429 O.3     
  23 C23            5.2180    -2.2787     0.2379 C.3     
  24 C24            5.3428    -3.3781     1.2946 C.3     
  25 S25            2.1438    -2.2058     3.7557 S.o2    
  26 O26            2.5724    -3.5606     3.7621 O.2     
  27 O27            2.9621    -1.1296     4.1935 O.2     
  28 C28            0.6767    -2.1434     4.7294 C.ar    
  29 C29           -0.0008    -0.9422     4.8864 C.ar    
  30 C30           -1.1550    -0.8938     5.6526 C.ar    
  31 C31           -1.6297    -2.0461     6.2604 C.ar    
  32 C32           -0.9488    -3.2444     6.1004 C.ar    
  33 C33            0.1985    -3.2913     5.3314 C.ar    
  34 O34           -2.7607    -2.0017     7.0125 O.3     
  35 C35           -3.1917    -3.2267     7.6089 C.3     
  36 O36            0.4672     0.1855     4.2898 O.3     
  37 C37           -0.2807     1.3859     4.4944 C.3     
  38 C38            0.1125    -5.1491    -2.0357 C.1     
  39 N39           -0.2167    -5.7758    -2.9242 N.1     
  40 C40           -1.1406     3.3547     0.1313 C.ar    
  41 C41           -0.5667     4.1148    -0.8774 C.ar    
  42 C42           -0.5160     5.4903    -0.7605 C.ar    
  43 C43           -1.0364     6.1096     0.3608 C.ar    
  44 C44           -1.6089     5.3543     1.3675 C.ar    
  45 C45           -1.6675     3.9789     1.2525 C.ar    
  46 H46           -0.7943    -0.4782    -0.2697 H       
  47 H47            0.4106    -2.4871    -1.9744 H       
  48 H48            1.4520    -4.6858     2.3262 H       
  49 H49            1.0715     1.2236    -1.6443 H       
  50 H50            2.8991     2.0072    -3.1369 H       
  51 H51            5.1224     0.9692    -2.9689 H       
  52 H52            5.4437    -2.6921    -0.7450 H       
  53 H53            5.9197    -1.4758     0.4642 H       
  54 H54            5.1171    -2.9646     2.2776 H       
  55 H55            4.6411    -4.1809     1.0683 H       
  56 H56            6.3591    -3.7720     1.2908 H       
  57 H57           -1.6834     0.0399     5.7762 H       
  58 H58           -1.3182    -4.1422     6.5736 H       
  59 H59            0.7246    -4.2259     5.2045 H       
  60 H60           -3.3878    -3.9617     6.8282 H       
  61 H61           -2.4128    -3.6012     8.2731 H       
  62 H62           -4.1033    -3.0516     8.1803 H       
  63 H63           -1.2935     1.2522     4.1143 H       
  64 H64           -0.3195     1.6127     5.5599 H       
  65 H65            0.2004     2.2084     3.9652 H       
  66 H66           -0.1594     3.6314    -1.7532 H       
  67 H67           -0.0693     6.0824    -1.5455 H       
  68 H68           -0.9952     7.1851     0.4507 H       
  69 H69           -2.0144     5.8403     2.2426 H       
  70 H70           -2.1189     3.3897     2.0370 H       
@<TRIPOS>BOND
   1    1    2 am
   2    1    3 2
   3    1    4 1
   4    2    7 1
   5    2   46 1
   6    4   40 1
   7    5    6 am
   8    5   13 1
   9    5   25 am
  10    6    7 1
  11    6   14 2
  12    7    8 1
  13    7   17 1
  14    8    9 ar
  15    8   13 ar
  16    9   10 ar
  17    9   47 1
  18   10   11 ar
  19   10   38 1
  20   11   12 ar
  21   11   15 1
  22   12   13 ar
  23   12   48 1
  24   16   17 ar
  25   16   21 ar
  26   16   22 1
  27   17   18 ar
  28   18   19 ar
  29   18   49 1
  30   19   20 ar
  31   19   50 1
  32   20   21 ar
  33   20   51 1
  34   22   23 1
  35   23   24 1
  36   23   52 1
  37   23   53 1
  38   24   54 1
  39   24   55 1
  40   24   56 1
  41   25   26 2
  42   25   27 2
  43   25   28 1
  44   28   29 ar
  45   28   33 ar
  46   29   30 ar
  47   29   36 1
  48   30   31 ar
  49   30   57 1
  50   31   32 ar
  51   31   34 1
  52   32   33 ar
  53   32   58 1
  54   33   59 1
  55   34   35 1
  56   35   60 1
  57   35   61 1
  58   35   62 1
  59   36   37 1
  60   37   63 1
  61   37   64 1
  62   37   65 1
  63   38   39 3
  64   40   41 ar
  65   40   45 ar
  66   41   42 ar
  67   41   66 1
  68   42   43 ar
  69   42   67 1
  70   43   44 ar
  71   43   68 1
  72   44   45 ar
  73   44   69 1
  74   45   70 1

#	End of record

