#	Name: ASD03730157
#	Creating user name:	WinNT
#	Creation time:	15. 06. 2019 20:44

#	Modifying user name:	WinNT
#	Modification time:	15. 06. 2019 20:44

#	Program:	/corina/corina34_cracker 3.40 0067  02.08.2006

@<TRIPOS>MOLECULE
ASD03730157
  65   70    0    0    0
SMALL
NO_CHARGES


@<TRIPOS>ATOM
   1 N1            -0.0178     1.4650     0.0101 N.am    
   2 C2             0.0021    -0.0041     0.0020 C.3     
   3 C3             0.8803    -0.4916     1.1586 C.3     
   4 C4             2.2627     0.1563     1.0525 C.3     
   5 C5             2.1248     1.6768     1.1584 C.3     
   6 C6             1.2607     2.1889     0.0018 C.3     
   7 C7            -1.1868     2.1359     0.0193 C.2     
   8 O8            -2.2375     1.5256     0.0210 O.2     
   9 O9            -1.1902     3.4822     0.0266 O.3     
  10 C10            3.1537    -0.3549     2.1863 C.3     
  11 O11            5.8787     5.4242    -1.1243 O.3     
  12 C12            6.9636     6.3050    -1.4707 C.3     
  13 O13            7.7510     6.3687    -0.2670 O.3     
  14 C14            7.5224     5.1888     0.3815 C.ar    
  15 C15            6.3697     4.6098    -0.1440 C.ar    
  16 C16            8.2175     4.5507     1.3931 C.ar    
  17 C17            7.7707     3.3323     1.8956 C.ar    
  18 C18            6.6106     2.7699     1.3716 C.ar    
  19 C19            5.9197     3.4000     0.3575 C.ar    
  20 O20            8.3101     2.5385     2.8648 O.3     
  21 C21            6.3722     1.4924     2.1314 C.3     
  22 C22            7.3051     1.6238     3.3432 C.3     
  23 N23            4.5103     0.1716     2.0167 N.am    
  24 C24            4.9372     1.3358     2.5452 C.2     
  25 C25            6.6854     0.2746     1.3139 C.ar    
  26 C26            7.8149    -0.1693     0.6614 C.ar    
  27 C27            7.7904    -1.3697    -0.0281 C.ar    
  28 C28            6.6299    -2.1211    -0.0595 C.ar    
  29 C29            5.4972    -1.6813     0.5932 C.ar    
  30 C30            5.5123    -0.4749     1.2892 C.ar    
  31 O31            4.2894     2.1057     3.2226 O.2     
  32 Br32           9.3993     0.8619     0.7072 Br      
  33 C33           -2.4856     4.1381     0.0364 C.3     
  34 C34           -3.2605     3.7182     1.2870 C.3     
  35 C35           -2.2890     5.6554     0.0437 C.3     
  36 C36           -3.2723     3.7317    -1.2114 C.3     
  37 H37           -1.0118    -0.3840     0.1278 H       
  38 H38            0.4128    -0.3587    -0.9433 H       
  39 H39            0.4202    -0.2139     2.1069 H       
  40 H40            0.9816    -1.5757     1.1066 H       
  41 H41            2.7120    -0.1016     0.0934 H       
  42 H42            1.6530     1.9341     2.1067 H       
  43 H43            3.1119     2.1361     1.1062 H       
  44 H44            1.7740     2.0131    -0.9436 H       
  45 H45            1.0772     3.2560     0.1274 H       
  46 H46            2.7515    -0.0214     3.1430 H       
  47 H47            3.1813    -1.4443     2.1637 H       
  48 H48            7.5493     5.8874    -2.2897 H       
  49 H49            6.5857     7.2930    -1.7337 H       
  50 H50            9.1130     5.0010     1.7954 H       
  51 H51            5.0254     2.9488    -0.0462 H       
  52 H52            7.7476     0.6607     3.5973 H       
  53 H53            6.7738     2.0443     4.1970 H       
  54 H54            8.6751    -1.7181    -0.5403 H       
  55 H55            6.6105    -3.0573    -0.5976 H       
  56 H56            4.5950    -2.2743     0.5640 H       
  57 H57           -2.7000     4.0076     2.1759 H       
  58 H58           -4.2329     4.2105     1.2943 H       
  59 H59           -3.4005     2.6372     1.2818 H       
  60 H60           -1.7370     5.9545    -0.8473 H       
  61 H61           -3.2615     6.1477     0.0510 H       
  62 H62           -1.7285     5.9448     0.9326 H       
  63 H63           -3.4124     2.6508    -1.2166 H       
  64 H64           -4.2448     4.2241    -1.2041 H       
  65 H65           -2.7203     4.0309    -2.1024 H       
@<TRIPOS>BOND
   1    1    2 1
   2    1    6 1
   3    1    7 am
   4    2    3 1
   5    2   37 1
   6    2   38 1
   7    3    4 1
   8    3   39 1
   9    3   40 1
  10    4    5 1
  11    4   10 1
  12    4   41 1
  13    5    6 1
  14    5   42 1
  15    5   43 1
  16    6   44 1
  17    6   45 1
  18    7    8 2
  19    7    9 1
  20    9   33 1
  21   10   23 1
  22   10   46 1
  23   10   47 1
  24   11   12 1
  25   11   15 1
  26   12   13 1
  27   12   48 1
  28   12   49 1
  29   13   14 1
  30   14   15 ar
  31   14   16 ar
  32   15   19 ar
  33   16   17 ar
  34   16   50 1
  35   17   18 ar
  36   17   20 1
  37   18   19 ar
  38   18   21 1
  39   19   51 1
  40   20   22 1
  41   21   22 1
  42   21   24 1
  43   21   25 1
  44   22   52 1
  45   22   53 1
  46   23   24 am
  47   23   30 1
  48   24   31 2
  49   25   26 ar
  50   25   30 ar
  51   26   27 ar
  52   26   32 1
  53   27   28 ar
  54   27   54 1
  55   28   29 ar
  56   28   55 1
  57   29   30 ar
  58   29   56 1
  59   33   34 1
  60   33   36 1
  61   33   35 1
  62   34   57 1
  63   34   58 1
  64   34   59 1
  65   35   60 1
  66   35   61 1
  67   35   62 1
  68   36   63 1
  69   36   64 1
  70   36   65 1

#	End of record

