#	Name: ASD01148793
#	Creating user name:	WinNT
#	Creation time:	15. 06. 2019 19:03

#	Modifying user name:	WinNT
#	Modification time:	15. 06. 2019 19:03

#	Program:	/corina/corina34_cracker 3.40 0067  02.08.2006

@<TRIPOS>MOLECULE
ASD01148793
  59   62    0    0    0
SMALL
NO_CHARGES


@<TRIPOS>ATOM
   1 N1             0.0433     1.3920    -0.2310 N.pl3   
   2 C2            -0.0127     0.0401    -0.1852 C.2     
   3 C3             1.2406    -0.4490     0.1114 C.2     
   4 C4             2.1184     0.7245     0.2539 C.2     
   5 C5             1.3184     1.8277     0.0306 C.2     
   6 C6             1.6245    -1.8604     0.2573 C.2     
   7 O7             2.0093    -2.4886    -0.7096 O.2     
   8 O8             1.5499    -2.4580     1.4633 O.3     
   9 C9            -1.0452     2.2279    -0.5118 C.ar    
  10 C10           -2.1002     2.3216     0.3861 C.ar    
  11 C11           -3.1720     3.1466     0.1065 C.ar    
  12 C12           -3.1950     3.8789    -1.0663 C.ar    
  13 C13           -2.1459     3.7878    -1.9625 C.ar    
  14 C14           -1.0686     2.9689    -1.6858 C.ar    
  15 S15           -4.5644     4.9299    -1.4197 S.o2    
  16 O16           -4.5922     5.0918    -2.8312 O.2     
  17 O17           -5.6625     4.4228    -0.6738 O.2     
  18 N18           -4.2160     6.4192    -0.7850 N.am    
  19 C19            3.5640     0.7221     0.5723 C.ar    
  20 C20            4.4811     0.1959    -0.3383 C.ar    
  21 C21            5.8270     0.1970    -0.0359 C.ar    
  22 C22            6.2683     0.7186     1.1675 C.ar    
  23 C23            5.3642     1.2417     2.0744 C.ar    
  24 C24            4.0158     1.2512     1.7814 C.ar    
  25 N25            6.8012    -0.3612    -1.0004 N.pl3   
  26 O26            6.4141    -0.8210    -2.0598 O.2     
  27 O27            7.9898    -0.3608    -0.7347 O.2     
  28 C28           -1.2457    -0.7940    -0.4196 C.3     
  29 C29            1.7597     3.2363     0.0666 C.ar    
  30 C30            1.0973     4.1580     0.8804 C.ar    
  31 C31            1.5143     5.4723     0.9094 C.ar    
  32 C32            2.5873     5.8787     0.1339 C.ar    
  33 C33            3.2483     4.9696    -0.6751 C.ar    
  34 C34            2.8447     3.6512    -0.7088 C.ar    
  35 Cl35           3.1057     7.5350     0.1758 Cl      
  36 C36            1.9450    -3.8535     1.5331 C.3     
  37 C37            1.7941    -4.3550     2.9707 C.3     
  38 H38           -2.0829     1.7496     1.3021 H       
  39 H39           -3.9930     3.2196     0.8043 H       
  40 H40           -2.1669     4.3607    -2.8778 H       
  41 H41           -0.2473     2.9018    -2.3839 H       
  42 H42           -3.3756     6.5650    -0.3229 H       
  43 H43           -4.8522     7.1458    -0.8753 H       
  44 H44            4.1379    -0.2118    -1.2776 H       
  45 H45            7.3230     0.7169     1.3998 H       
  46 H46            5.7148     1.6473     3.0119 H       
  47 H47            3.3113     1.6637     2.4885 H       
  48 H48           -1.3231    -1.0382    -1.4790 H       
  49 H49           -1.1779    -1.7138     0.1613 H       
  50 H50           -2.1278    -0.2333    -0.1106 H       
  51 H51            0.2602     3.8424     1.4853 H       
  52 H52            1.0028     6.1862     1.5381 H       
  53 H53            4.0842     5.2928    -1.2778 H       
  54 H54            3.3638     2.9422    -1.3367 H       
  55 H55            1.3094    -4.4444     0.8736 H       
  56 H56            2.9845    -3.9528     1.2208 H       
  57 H57            0.7545    -4.2556     3.2829 H       
  58 H58            2.0907    -5.4025     3.0230 H       
  59 H59            2.4297    -3.7640     3.6302 H       
@<TRIPOS>BOND
   1    1    2 1
   2    1    5 1
   3    1    9 1
   4    2    3 2
   5    2   28 1
   6    3    4 1
   7    3    6 1
   8    4    5 2
   9    4   19 1
  10    5   29 1
  11    6    7 2
  12    6    8 1
  13    8   36 1
  14    9   10 ar
  15    9   14 ar
  16   10   11 ar
  17   10   38 1
  18   11   12 ar
  19   11   39 1
  20   12   13 ar
  21   12   15 1
  22   13   14 ar
  23   13   40 1
  24   14   41 1
  25   15   16 2
  26   15   17 2
  27   15   18 am
  28   18   42 1
  29   18   43 1
  30   19   20 ar
  31   19   24 ar
  32   20   21 ar
  33   20   44 1
  34   21   22 ar
  35   21   25 1
  36   22   23 ar
  37   22   45 1
  38   23   24 ar
  39   23   46 1
  40   24   47 1
  41   25   26 2
  42   25   27 2
  43   28   48 1
  44   28   49 1
  45   28   50 1
  46   29   30 ar
  47   29   34 ar
  48   30   31 ar
  49   30   51 1
  50   31   32 ar
  51   31   52 1
  52   32   33 ar
  53   32   35 1
  54   33   34 ar
  55   33   53 1
  56   34   54 1
  57   36   37 1
  58   36   55 1
  59   36   56 1
  60   37   57 1
  61   37   58 1
  62   37   59 1

#	End of record

