#	Name: ASD00431454
#	Creating user name:	WinNT
#	Creation time:	15. 06. 2019 18:35

#	Modifying user name:	WinNT
#	Modification time:	15. 06. 2019 18:35

#	Program:	/corina/corina34_cracker 3.40 0067  02.08.2006

@<TRIPOS>MOLECULE
ASD00431454
  51   54    0    0    0
SMALL
NO_CHARGES


@<TRIPOS>ATOM
   1 N1             0.1935     1.7331    -0.6652 N.am    
   2 C2            -0.0157     0.4018    -0.6480 C.2     
   3 O3             0.8951    -0.3532    -0.3675 O.2     
   4 N4            -1.2347    -0.0927    -0.9416 N.am    
   5 C5            -1.4621    -1.5398    -0.9229 C.3     
   6 C6             1.5184     2.2705    -0.3461 C.3     
   7 C7             2.3877     2.2655    -1.6052 C.3     
   8 O8             0.5452     4.6225    -0.3065 O.3     
   9 N9             0.6537     5.6637     0.2985 N.2     
  10 C10            1.5599     5.5746     1.2444 C.2     
  11 C11            2.0694     4.2452     1.1780 C.2     
  12 C12            1.3787     3.6823     0.1623 C.2     
  13 S13            3.1903     6.4902     3.4470 S.3     
  14 C14            2.9201     8.1128     3.9124 C.2     
  15 N15            2.0039     8.6487     3.1662 N.2     
  16 C16            1.4721     7.8906     2.2327 C.2     
  17 C17            1.9685     6.6366     2.1860 C.2     
  18 O18            3.5698     8.7481     4.9167 O.3     
  19 C19            3.1710    10.0066     5.2388 C.ar    
  20 C20            2.0071    10.2007     5.9676 C.ar    
  21 C21            1.6034    11.4856     6.2949 C.ar    
  22 C22            2.3642    12.5746     5.8929 C.ar    
  23 C23            3.5231    12.3787     5.1665 C.ar    
  24 C24            3.9309    11.0985     4.8437 C.ar    
  25 O25            0.4631    11.6790     7.0086 O.3     
  26 C26            0.1078    13.0299     7.3102 C.3     
  27 C27           -1.1946    13.0476     8.1129 C.3     
  28 C28           -1.6837    14.3997     8.6360 C.3     
  29 C29           -2.4099    13.7213     7.4726 C.3     
  30 H30           -0.5322     2.3351    -0.8929 H       
  31 H31           -1.9614     0.5096    -1.1653 H       
  32 H32           -0.8020    -2.0207    -1.6447 H       
  33 H33           -1.2539    -1.9274     0.0744 H       
  34 H34           -2.4996    -1.7480    -1.1843 H       
  35 H35            1.9860     1.6529     0.4207 H       
  36 H36            1.9201     2.8832    -2.3719 H       
  37 H37            3.3735     2.6654    -1.3677 H       
  38 H38            2.4887     1.2444    -1.9729 H       
  39 H39            2.8307     3.7927     1.7961 H       
  40 H40            0.7030     8.2416     1.5606 H       
  41 H41            1.4162     9.3521     6.2792 H       
  42 H42            2.0500    13.5759     6.1478 H       
  43 H43            4.1135    13.2275     4.8543 H       
  44 H44            4.8397    10.9477     4.2800 H       
  45 H45            0.9021    13.4923     7.8961 H       
  46 H46           -0.0296    13.5852     6.3824 H       
  47 H47           -1.3745    12.1718     8.7363 H       
  48 H48           -2.1857    14.4133     9.6034 H       
  49 H49           -1.0776    15.2765     8.4082 H       
  50 H50           -2.2816    14.1519     6.4796 H       
  51 H51           -3.3898    13.2887     7.6747 H       
@<TRIPOS>BOND
   1    1    2 am
   2    1    6 1
   3    1   30 1
   4    2    3 2
   5    2    4 am
   6    4    5 1
   7    4   31 1
   8    5   32 1
   9    5   33 1
  10    5   34 1
  11    6    7 1
  12    6   12 1
  13    6   35 1
  14    7   36 1
  15    7   37 1
  16    7   38 1
  17    8    9 1
  18    8   12 1
  19    9   10 2
  20   10   11 1
  21   10   17 1
  22   11   12 2
  23   11   39 1
  24   13   14 1
  25   13   17 1
  26   14   15 2
  27   14   18 1
  28   15   16 1
  29   16   17 2
  30   16   40 1
  31   18   19 1
  32   19   20 ar
  33   19   24 ar
  34   20   21 ar
  35   20   41 1
  36   21   22 ar
  37   21   25 1
  38   22   23 ar
  39   22   42 1
  40   23   24 ar
  41   23   43 1
  42   24   44 1
  43   25   26 1
  44   26   27 1
  45   26   45 1
  46   26   46 1
  47   27   28 1
  48   27   29 1
  49   27   47 1
  50   28   29 1
  51   28   48 1
  52   28   49 1
  53   29   50 1
  54   29   51 1

#	End of record

