#	Name: ASD00170296
#	Creating user name:	WinNT
#	Creation time:	15. 06. 2019 18:31

#	Modifying user name:	WinNT
#	Modification time:	15. 06. 2019 18:31

#	Program:	/corina/corina34_cracker 3.40 0067  02.08.2006

@<TRIPOS>MOLECULE
ASD00170296
  42   45    0    0    0
SMALL
NO_CHARGES


@<TRIPOS>ATOM
   1 C1            -0.1508     1.2836    -0.1066 C.2     
   2 C2            -0.0425    -0.0784    -0.0027 C.2     
   3 C3            -1.3212    -0.7434     0.1524 C.2     
   4 C4            -2.3480     0.1161     0.1615 C.2     
   5 S5            -1.7810     1.7670    -0.0124 S.3     
   6 C6             1.2378    -0.7915    -0.0441 C.2     
   7 C7             1.7751    -1.2599    -1.3259 C.2     
   8 O8             1.8558    -0.9950     0.9869 O.2     
   9 N9             0.9170     2.1471    -0.2606 N.pl3   
  10 S10            0.9956    -1.0670    -2.8901 S.3     
  11 C11            2.2805    -1.8632    -3.6813 C.2     
  12 C12            3.2217    -2.2401    -2.8061 C.2     
  13 C13            2.9646    -1.9111    -1.4963 C.2     
  14 Br14           2.3642    -2.1729    -5.5449 Br      
  15 C15           -1.5096    -2.2460     0.2920 C.3     
  16 C16           -2.9189    -2.5024     0.8355 C.3     
  17 N17           -3.8941    -1.7482     0.0351 N.3     
  18 C18           -3.7966    -0.3065     0.3084 C.3     
  19 C19           -5.2591    -2.2374     0.2703 C.3     
  20 C20           -6.2473    -1.2949    -0.3671 C.ar    
  21 C21           -6.6488    -1.4950    -1.6746 C.ar    
  22 C22           -7.5553    -0.6305    -2.2593 C.ar    
  23 C23           -8.0605     0.4339    -1.5363 C.ar    
  24 C24           -7.6597     0.6334    -0.2285 C.ar    
  25 C25           -6.7565    -0.2336     0.3576 C.ar    
  26 H26            1.8248     1.8079    -0.2197 H       
  27 H27            0.7587     3.0924    -0.4098 H       
  28 H28            4.1186    -2.7607    -3.1077 H       
  29 H29            3.6325    -2.1502    -0.6820 H       
  30 H30           -1.3987    -2.7227    -0.6820 H       
  31 H31           -0.7696    -2.6468     0.9847 H       
  32 H32           -3.1441    -3.5672     0.7746 H       
  33 H33           -2.9725    -2.1778     1.8747 H       
  34 H34           -4.1366    -0.1027     1.3238 H       
  35 H35           -4.4119     0.2434    -0.4037 H       
  36 H36           -5.3697    -3.2298    -0.1667 H       
  37 H37           -5.4466    -2.2897     1.3427 H       
  38 H38           -6.2541    -2.3266    -2.2395 H       
  39 H39           -7.8684    -0.7864    -3.2811 H       
  40 H40           -8.7682     1.1097    -1.9933 H       
  41 H41           -8.0542     1.4652     0.3363 H       
  42 H42           -6.4434    -0.0777     1.3794 H       
@<TRIPOS>BOND
   1    1    2 2
   2    1    9 1
   3    1    5 1
   4    2    3 1
   5    2    6 1
   6    3    4 2
   7    3   15 1
   8    4    5 1
   9    4   18 1
  10    6    7 1
  11    6    8 2
  12    7   10 1
  13    7   13 2
  14    9   26 1
  15    9   27 1
  16   10   11 1
  17   11   12 2
  18   11   14 1
  19   12   13 1
  20   12   28 1
  21   13   29 1
  22   15   16 1
  23   15   30 1
  24   15   31 1
  25   16   17 1
  26   16   32 1
  27   16   33 1
  28   17   18 1
  29   17   19 1
  30   18   34 1
  31   18   35 1
  32   19   20 1
  33   19   36 1
  34   19   37 1
  35   20   21 ar
  36   20   25 ar
  37   21   22 ar
  38   21   38 1
  39   22   23 ar
  40   22   39 1
  41   23   24 ar
  42   23   40 1
  43   24   25 ar
  44   24   41 1
  45   25   42 1

#	End of record

