#	Name: ASD04590776
#	Creating user name:	WinNT
#	Creation time:	15. 06. 2019 20:51

#	Modifying user name:	WinNT
#	Modification time:	15. 06. 2019 20:51

#	Program:	/corina/corina34_cracker 3.40 0067  02.08.2006

@<TRIPOS>MOLECULE
ASD04590776
  54   59    0    0    0
SMALL
NO_CHARGES


@<TRIPOS>ATOM
   1 N1            -0.0171     1.3233    -0.0128 N.ar    
   2 C2             0.0017    -0.0035    -0.0056 C.ar    
   3 N3             1.1298    -0.6948    -0.0121 N.ar    
   4 C4             2.3049    -0.0727    -0.0269 C.ar    
   5 C5             2.3188     1.3366    -0.0353 C.ar    
   6 C6             1.1071     2.0203    -0.0275 C.ar    
   7 N7             3.6031    -0.5194    -0.0369 N.pl3   
   8 C8             4.4823     0.5497    -0.0518 C.ar    
   9 C9             3.7311     1.7386    -0.0515 C.ar    
  10 C10            5.8680     0.6420    -0.0663 C.ar    
  11 N11            6.4612     1.8183    -0.0794 N.ar    
  12 C12            5.7849     2.9534    -0.0795 C.ar    
  13 C13            4.4062     2.9586    -0.0653 C.ar    
  14 C14            4.0018    -1.9291    -0.0321 C.3     
  15 N15           -1.2019    -0.6887     0.0098 N.pl3   
  16 C16           -2.4019     0.0120     0.1303 C.ar    
  17 C17           -3.6090    -0.6706     0.0327 C.ar    
  18 C18           -4.7936     0.0334     0.1536 C.ar    
  19 C19           -4.7292     1.4087     0.3700 C.ar    
  20 C20           -3.4881     2.0222     0.4565 C.ar    
  21 N21           -2.3783     1.3182     0.3417 N.ar    
  22 N22           -5.9025     2.1616     0.4981 N.3     
  23 C23           -5.5954     3.5816     0.7196 C.3     
  24 C24           -6.8998     4.3803     0.7746 C.3     
  25 N25           -7.7486     3.8535     1.8525 N.3     
  26 C26           -8.0557     2.4336     1.6309 C.3     
  27 C27           -6.7513     1.6349     1.5759 C.3     
  28 C28            4.1250    -2.4211    -1.4511 C.2     
  29 S29            2.8250    -3.1427    -2.3906 S.3     
  30 C30            3.8957    -3.3477    -3.7708 C.2     
  31 C31            5.1101    -2.8867    -3.4672 C.2     
  32 C32            5.2353    -2.3708    -2.1887 C.2     
  33 H33            1.0847     3.1000    -0.0336 H       
  34 H34            6.4644    -0.2583    -0.0665 H       
  35 H35            6.3201     3.8914    -0.0902 H       
  36 H36            3.8595     3.8900    -0.0650 H       
  37 H37            4.9619    -2.0334     0.4734 H       
  38 H38            3.2492    -2.5177     0.4925 H       
  39 H39           -1.2103    -1.6559    -0.0632 H       
  40 H40           -3.6218    -1.7373    -0.1359 H       
  41 H41           -5.7460    -0.4708     0.0816 H       
  42 H42           -3.4298     3.0876     0.6237 H       
  43 H43           -5.0595     3.6950     1.6620 H       
  44 H44           -4.9766     3.9517    -0.0978 H       
  45 H45           -6.6760     5.4294     0.9678 H       
  46 H46           -7.4226     4.2889    -0.1775 H       
  47 H47           -7.3172     3.9939     2.7538 H       
  48 H48           -8.6745     2.0635     2.4483 H       
  49 H49           -8.5916     2.3202     0.6885 H       
  50 H50           -6.9751     0.5858     1.3828 H       
  51 H51           -6.2285     1.7262     2.5280 H       
  52 H52            3.6134    -3.7809    -4.7189 H       
  53 H53            5.9322    -2.9105    -4.1671 H       
  54 H54            6.1634    -1.9647    -1.8145 H       
@<TRIPOS>BOND
   1    1    2 ar
   2    1    6 ar
   3    2    3 ar
   4    2   15 1
   5    3    4 ar
   6    4    5 ar
   7    4    7 1
   8    5    6 ar
   9    5    9 1
  10    6   33 1
  11    7    8 1
  12    7   14 1
  13    8    9 ar
  14    8   10 ar
  15    9   13 ar
  16   10   11 ar
  17   10   34 1
  18   11   12 ar
  19   12   13 ar
  20   12   35 1
  21   13   36 1
  22   14   28 1
  23   14   37 1
  24   14   38 1
  25   15   16 1
  26   15   39 1
  27   16   17 ar
  28   16   21 ar
  29   17   18 ar
  30   17   40 1
  31   18   19 ar
  32   18   41 1
  33   19   20 ar
  34   19   22 1
  35   20   21 ar
  36   20   42 1
  37   22   23 1
  38   22   27 1
  39   23   24 1
  40   23   43 1
  41   23   44 1
  42   24   25 1
  43   24   45 1
  44   24   46 1
  45   25   26 1
  46   25   47 1
  47   26   27 1
  48   26   48 1
  49   26   49 1
  50   27   50 1
  51   27   51 1
  52   28   29 1
  53   28   32 2
  54   29   30 1
  55   30   31 2
  56   30   52 1
  57   31   32 1
  58   31   53 1
  59   32   54 1

#	End of record

