#	Name: ASD04882188
#	Creating user name:	WinNT
#	Creation time:	15. 06. 2019 20:54

#	Modifying user name:	WinNT
#	Modification time:	15. 06. 2019 20:54

#	Program:	/corina/corina34_cracker 3.40 0067  02.08.2006

@<TRIPOS>MOLECULE
ASD04882188
  86   91    0    0    0
SMALL
NO_CHARGES


@<TRIPOS>ATOM
   1 C1             0.3052     2.2038     2.7974 C.ar    
   2 S2             0.2279     1.3769     1.2434 S.o2    
   3 N3            -0.4999    -0.0878     1.5031 N.am    
   4 C4            -1.8217    -0.1411     1.9626 C.ar    
   5 C5            -2.0821    -0.3019     3.3263 C.ar    
   6 C6            -3.3933    -0.3549     3.7839 C.ar    
   7 C7            -4.4410    -0.2494     2.8956 C.ar    
   8 C8            -4.1878    -0.0880     1.5309 C.ar    
   9 C9            -2.8696    -0.0290     1.0687 C.ar    
  10 N10           -1.0255    -0.4095     4.2284 N.3     
  11 C11           -0.2721    -1.6524     4.0111 C.3     
  12 C12           -1.5058    -0.3237     5.6146 C.3     
  13 C13           -0.3103    -0.3660     6.5694 C.3     
  14 N14            0.4431    -1.6089     6.3520 N.3     
  15 C15            0.9233    -1.6947     4.9658 C.3     
  16 C16            1.5022    -1.7169     7.2563 C.ar    
  17 C17            2.4980    -0.7490     7.2806 C.ar    
  18 C18            1.5588    -2.7896     8.1373 C.ar    
  19 C19            2.6073    -2.8933     9.0298 C.ar    
  20 C20            3.6000    -1.9305     9.0478 C.ar    
  21 C21            3.5439    -0.8588     8.1760 C.ar    
  22 C22           -5.3098     0.0246     0.5796 C.2     
  23 N23           -6.5802    -0.0283     1.0267 N.am    
  24 O24           -5.0885     0.1650    -0.6078 O.2     
  25 O25           -0.6634     2.1297     0.4322 O.2     
  26 C26           -7.6944     0.0835     0.0821 C.3     
  27 C27           -9.0189    -0.0064     0.8427 C.3     
  28 C28          -10.1825     0.1103    -0.1438 C.3     
  29 N29          -11.4507     0.0242     0.5846 N.am    
  30 C30          -12.1675     1.1788     1.1386 C.3     
  31 C31          -13.1682     0.5920     2.1587 C.3     
  32 C32          -13.3716    -0.8403     1.6127 C.3     
  33 C33          -12.1102    -1.1219     0.8263 C.2     
  34 C34            0.4770    -3.8387     8.1191 C.3     
  35 O35            1.5703     1.0973     0.8705 O.2     
  36 C36            1.5054     2.3987     3.4084 C.ar    
  37 C37            1.5891     3.0497     4.6377 C.ar    
  38 C38            0.4703     3.5099     5.2621 C.ar    
  39 C39           -0.7853     3.3267     4.6605 C.ar    
  40 C40           -0.8723     2.6698     3.4081 C.ar    
  41 C41           -1.9659     3.7879     5.2727 C.ar    
  42 C42           -3.1514     3.5747     4.6288 C.ar    
  43 C43           -3.1671     2.9166     3.4008 C.ar    
  44 N44           -2.0651     2.4936     2.8308 N.ar    
  45 O45          -11.7436    -2.2223     0.4720 O.2     
  46 C46            2.9359     3.2464     5.2847 C.3     
  47 H47           -0.0107    -0.9087     1.3370 H       
  48 H48           -3.5914    -0.4796     4.8382 H       
  49 H49           -5.4588    -0.2917     3.2543 H       
  50 H50           -2.6707     0.0956     0.0145 H       
  51 H51           -0.9198    -2.5083     4.2012 H       
  52 H52            0.0835    -1.6868     2.9813 H       
  53 H53           -2.0495     0.6106     5.7539 H       
  54 H54           -2.1675    -1.1645     5.8229 H       
  55 H55            0.3374     0.4898     6.3793 H       
  56 H56           -0.6660    -0.3317     7.5991 H       
  57 H57            1.4671    -2.6291     4.8265 H       
  58 H58            1.5850    -0.8540     4.7575 H       
  59 H59            2.4548     0.0884     6.5999 H       
  60 H60            2.6519    -3.7270     9.7150 H       
  61 H61            4.4186    -2.0137     9.7474 H       
  62 H62            4.3208    -0.1088     8.1926 H       
  63 H63           -6.7567    -0.1403     1.9739 H       
  64 H64           -7.6371     1.0409    -0.4358 H       
  65 H65           -7.6371    -0.7268    -0.6448 H       
  66 H66           -9.0762    -0.9638     1.3606 H       
  67 H67           -9.0761     0.8038     1.5696 H       
  68 H68          -10.1252     1.0677    -0.6616 H       
  69 H69          -10.1252    -0.7000    -0.8707 H       
  70 H70          -11.4703     1.8514     1.6382 H       
  71 H71          -12.7008     1.7066     0.3479 H       
  72 H72          -12.7372     0.5704     3.1597 H       
  73 H73          -14.1050     1.1491     2.1510 H       
  74 H74          -13.4792    -1.5497     2.4333 H       
  75 H75          -14.2417    -0.8787     0.9573 H       
  76 H76            0.7513    -4.6314     7.4230 H       
  77 H77            0.3600    -4.2573     9.1187 H       
  78 H78           -0.4626    -3.3861     7.8024 H       
  79 H79            2.4075     2.0428     2.9331 H       
  80 H80            0.5479     4.0126     6.2149 H       
  81 H81           -1.9352     4.2959     6.2253 H       
  82 H82           -4.0758     3.9155     5.0713 H       
  83 H83           -4.1119     2.7546     2.9033 H       
  84 H84            3.3614     4.1948     4.9567 H       
  85 H85            2.8205     3.2555     6.3685 H       
  86 H86            3.5998     2.4313     4.9968 H       
@<TRIPOS>BOND
   1    1    2 1
   2    1   36 ar
   3    1   40 ar
   4    2    3 am
   5    2   25 2
   6    2   35 2
   7    3    4 1
   8    3   47 1
   9    4    5 ar
  10    4    9 ar
  11    5    6 ar
  12    5   10 1
  13    6    7 ar
  14    6   48 1
  15    7    8 ar
  16    7   49 1
  17    8    9 ar
  18    8   22 1
  19    9   50 1
  20   10   11 1
  21   10   12 1
  22   11   15 1
  23   11   51 1
  24   11   52 1
  25   12   13 1
  26   12   53 1
  27   12   54 1
  28   13   14 1
  29   13   55 1
  30   13   56 1
  31   14   15 1
  32   14   16 1
  33   15   57 1
  34   15   58 1
  35   16   17 ar
  36   16   18 ar
  37   17   21 ar
  38   17   59 1
  39   18   19 ar
  40   18   34 1
  41   19   20 ar
  42   19   60 1
  43   20   21 ar
  44   20   61 1
  45   21   62 1
  46   22   23 am
  47   22   24 2
  48   23   26 1
  49   23   63 1
  50   26   27 1
  51   26   64 1
  52   26   65 1
  53   27   28 1
  54   27   66 1
  55   27   67 1
  56   28   29 1
  57   28   68 1
  58   28   69 1
  59   29   30 1
  60   29   33 am
  61   30   31 1
  62   30   70 1
  63   30   71 1
  64   31   32 1
  65   31   72 1
  66   31   73 1
  67   32   33 1
  68   32   74 1
  69   32   75 1
  70   33   45 2
  71   34   76 1
  72   34   77 1
  73   34   78 1
  74   36   37 ar
  75   36   79 1
  76   37   38 ar
  77   37   46 1
  78   38   39 ar
  79   38   80 1
  80   39   40 ar
  81   39   41 ar
  82   40   44 ar
  83   41   42 ar
  84   41   81 1
  85   42   43 ar
  86   42   82 1
  87   43   44 ar
  88   43   83 1
  89   46   84 1
  90   46   85 1
  91   46   86 1

#	End of record

