#	Name: ASD02038991
#	Creating user name:	WinNT
#	Creation time:	15. 06. 2019 20:17

#	Modifying user name:	WinNT
#	Modification time:	15. 06. 2019 20:17

#	Program:	/corina/corina34_cracker 3.40 0067  02.08.2006

@<TRIPOS>MOLECULE
ASD02038991
  39   42    0    0    0
SMALL
NO_CHARGES


@<TRIPOS>ATOM
   1 N1             0.0234     1.2845    -0.3602 N.2     
   2 N2             0.0397    -0.0019    -0.3611 N.2     
   3 C3             1.2243     1.7332    -0.0873 C.2     
   4 O4             2.0203     0.6621     0.0886 O.3     
   5 C5             1.2410    -0.4221    -0.0913 C.2     
   6 N6             1.6033     3.0607     0.0028 N.pl3   
   7 C7             0.6403     4.0705    -0.0881 C.ar    
   8 C8             1.6808    -1.8604     0.0032 C.3     
   9 O9             2.1171    -2.3105    -1.2810 O.3     
  10 C10            2.5498    -3.5963    -1.3701 C.ar    
  11 C11            2.9845    -4.0922    -2.5831 C.ar    
  12 C12            2.5577    -4.4049    -0.2363 C.ar    
  13 C13            2.9935    -5.7098    -0.3077 C.ar    
  14 C14            3.4307    -6.2308    -1.5207 C.ar    
  15 C15            3.4289    -5.4155    -2.6683 C.ar    
  16 C16           -0.6623     3.8294     0.3296 C.ar    
  17 C17            0.9859     5.3183    -0.5909 C.ar    
  18 C18            0.0329     6.3139    -0.6791 C.ar    
  19 C19           -1.2653     6.0693    -0.2671 C.ar    
  20 C20           -1.6112     4.8286     0.2392 C.ar    
  21 Cl21          -2.4606     7.3233    -0.3788 Cl      
  22 N22            3.8707    -7.5358    -1.6130 N.am    
  23 C23            4.2933    -8.0419    -2.7846 C.2     
  24 C24            4.3067    -7.2676    -3.9643 C.2     
  25 C25            3.8913    -5.9771    -3.9390 C.2     
  26 O26            4.6750    -9.1987    -2.8288 O.2     
  27 H27            2.5371     3.2910     0.1290 H       
  28 H28            2.5018    -1.9432     0.7154 H       
  29 H29            0.8452    -2.4745     0.3389 H       
  30 H30            2.9812    -3.4624    -3.4604 H       
  31 H31            2.2192    -4.0050     0.7081 H       
  32 H32            2.9961    -6.3277     0.5780 H       
  33 H33           -0.9328     2.8612     0.7245 H       
  34 H34            1.9991     5.5099    -0.9123 H       
  35 H35            0.3012     7.2845    -1.0697 H       
  36 H36           -2.6251     4.6404     0.5600 H       
  37 H37            3.8753    -8.0957    -0.8209 H       
  38 H38            4.6525    -7.7033    -4.8900 H       
  39 H39            3.8980    -5.3776    -4.8373 H       
@<TRIPOS>BOND
   1    1    2 1
   2    1    3 2
   3    2    5 2
   4    3    4 1
   5    3    6 1
   6    4    5 1
   7    5    8 1
   8    6    7 1
   9    6   27 1
  10    7   16 ar
  11    7   17 ar
  12    8    9 1
  13    8   28 1
  14    8   29 1
  15    9   10 1
  16   10   11 ar
  17   10   12 ar
  18   11   15 ar
  19   11   30 1
  20   12   13 ar
  21   12   31 1
  22   13   14 ar
  23   13   32 1
  24   14   15 ar
  25   14   22 1
  26   15   25 1
  27   16   20 ar
  28   16   33 1
  29   17   18 ar
  30   17   34 1
  31   18   19 ar
  32   18   35 1
  33   19   20 ar
  34   19   21 1
  35   20   36 1
  36   22   23 am
  37   22   37 1
  38   23   24 1
  39   23   26 2
  40   24   25 2
  41   24   38 1
  42   25   39 1

#	End of record

