#	Name: ASD01000090
#	Creating user name:	WinNT
#	Creation time:	15. 06. 2019 18:54

#	Modifying user name:	WinNT
#	Modification time:	15. 06. 2019 18:54

#	Program:	/corina/corina34_cracker 3.40 0067  02.08.2006

@<TRIPOS>MOLECULE
ASD01000090
  68   71    0    0    0
SMALL
NO_CHARGES


@<TRIPOS>ATOM
   1 C1             0.4695     1.4753    -0.4868 C.2     
   2 C2             0.1359     0.0217    -0.2708 C.3     
   3 C3            -0.2107    -0.2088     1.2015 C.3     
   4 C4            -2.6135     1.2743    -1.9937 C.3     
   5 C5            -2.3161     0.2771    -0.8721 C.3     
   6 N6            -1.0107    -0.3454    -1.1057 N.am    
   7 C7            -0.4277    -1.7033     1.4465 C.3     
   8 C8            -4.0174     1.8520    -1.8034 C.3     
   9 N9            -4.3031     2.8095    -2.8803 N.3     
  10 C10           -0.8645    -1.2559    -2.0886 C.2     
  11 C11           -1.9819    -1.5266    -3.0173 C.ar    
  12 O12            0.1864    -1.8545    -2.2113 O.2     
  13 C13           -1.7694    -1.4980    -4.3968 C.ar    
  14 C14           -2.8160    -1.7514    -5.2582 C.ar    
  15 C15           -4.0759    -2.0333    -4.7575 C.ar    
  16 C16           -4.2932    -2.0628    -3.3902 C.ar    
  17 C17           -3.2530    -1.8176    -2.5185 C.ar    
  18 N18            1.7294     1.9811    -0.5741 N.pl3   
  19 C19            1.6125     3.3423    -0.7726 C.ar    
  20 C20            0.2341     3.6136    -0.7981 C.ar    
  21 N21           -0.4054     2.4287    -0.6226 N.2     
  22 C22            2.9785     1.2221    -0.4752 C.3     
  23 C23            3.3925     0.7551    -1.8469 C.ar    
  24 C24            4.2077     1.5500    -2.6308 C.ar    
  25 C25            2.9616    -0.4706    -2.3190 C.ar    
  26 C26            3.3413    -0.8990    -3.5772 C.ar    
  27 C27            4.1515    -0.1014    -4.3636 C.ar    
  28 C28            4.5874     1.1216    -3.8891 C.ar    
  29 C29            2.5234     4.3775    -0.9346 C.ar    
  30 C30            2.0676     5.6653    -1.1195 C.ar    
  31 C31            0.7061     5.9327    -1.1442 C.ar    
  32 C32           -0.2046     4.9268    -0.9867 C.ar    
  33 C33           -4.3775     2.1315    -4.1814 C.3     
  34 C34           -5.5366     3.5583    -2.6055 C.3     
  35 Br35          -5.5058    -2.3790    -5.9457 Br      
  36 H36            0.9945    -0.5924    -0.5424 H       
  37 H37            0.6077     0.1470     1.8274 H       
  38 H38           -1.1214     0.3362     1.4499 H       
  39 H39           -1.8816     2.0815    -1.9658 H       
  40 H40           -2.5572     0.7659    -2.9562 H       
  41 H41           -2.3035     0.7994     0.0846 H       
  42 H42           -3.0879    -0.4924    -0.8558 H       
  43 H43           -0.6746    -1.8675     2.4954 H       
  44 H44           -1.2461    -2.0590     0.8206 H       
  45 H45            0.4830    -2.2482     1.1980 H       
  46 H46           -4.7494     1.0448    -1.8313 H       
  47 H47           -4.0737     2.3604    -0.8408 H       
  48 H48           -0.7874    -1.2775    -4.7885 H       
  49 H49           -2.6529    -1.7295    -6.3256 H       
  50 H50           -5.2781    -2.2826    -3.0056 H       
  51 H51           -3.4235    -1.8412    -1.4523 H       
  52 H52            3.7584     1.8588    -0.0574 H       
  53 H53            2.8286     0.3585     0.1728 H       
  54 H54            4.5477     2.5058    -2.2604 H       
  55 H55            2.3286    -1.0937    -1.7046 H       
  56 H56            3.0053    -1.8569    -3.9458 H       
  57 H57            4.4485    -0.4363    -5.3465 H       
  58 H58            5.2204     1.7447    -4.5034 H       
  59 H59            3.5840     4.1748    -0.9155 H       
  60 H60            2.7749     6.4716    -1.2457 H       
  61 H61            0.3630     6.9464    -1.2896 H       
  62 H62           -1.2619     5.1462    -1.0078 H       
  63 H63           -5.1717     1.3854    -4.1574 H       
  64 H64           -4.5900     2.8634    -4.9607 H       
  65 H65           -3.4261     1.6429    -4.3914 H       
  66 H66           -5.4279     4.1069    -1.6699 H       
  67 H67           -5.7245     4.2599    -3.4183 H       
  68 H68           -6.3728     2.8638    -2.5244 H       
@<TRIPOS>BOND
   1    1    2 1
   2    1   18 1
   3    1   21 2
   4    2    3 1
   5    2    6 1
   6    2   36 1
   7    3    7 1
   8    3   37 1
   9    3   38 1
  10    4    5 1
  11    4    8 1
  12    4   39 1
  13    4   40 1
  14    5    6 1
  15    5   41 1
  16    5   42 1
  17    6   10 am
  18    7   43 1
  19    7   44 1
  20    7   45 1
  21    8    9 1
  22    8   46 1
  23    8   47 1
  24    9   33 1
  25    9   34 1
  26   10   11 1
  27   10   12 2
  28   11   13 ar
  29   11   17 ar
  30   13   14 ar
  31   13   48 1
  32   14   15 ar
  33   14   49 1
  34   15   16 ar
  35   15   35 1
  36   16   17 ar
  37   16   50 1
  38   17   51 1
  39   18   19 1
  40   18   22 1
  41   19   20 ar
  42   19   29 ar
  43   20   21 1
  44   20   32 ar
  45   22   23 1
  46   22   52 1
  47   22   53 1
  48   23   24 ar
  49   23   25 ar
  50   24   28 ar
  51   24   54 1
  52   25   26 ar
  53   25   55 1
  54   26   27 ar
  55   26   56 1
  56   27   28 ar
  57   27   57 1
  58   28   58 1
  59   29   30 ar
  60   29   59 1
  61   30   31 ar
  62   30   60 1
  63   31   32 ar
  64   31   61 1
  65   32   62 1
  66   33   63 1
  67   33   64 1
  68   33   65 1
  69   34   66 1
  70   34   67 1
  71   34   68 1

#	End of record

