#	Name: ASD05730087
#	Creating user name:	WinNT
#	Creation time:	15. 06. 2019 21:02

#	Modifying user name:	WinNT
#	Modification time:	15. 06. 2019 21:02

#	Program:	/corina/corina34_cracker 3.40 0067  02.08.2006

@<TRIPOS>MOLECULE
ASD05730087
  59   63    0    0    0
SMALL
NO_CHARGES


@<TRIPOS>ATOM
   1 C1            -0.6439     0.6770     0.9434 C.3     
   2 C2            -0.5089    -0.8182     0.8118 C.ar    
   3 C3            -1.4572    -1.6492     1.3797 C.ar    
   4 C4            -1.3367    -3.0198     1.2605 C.ar    
   5 C5            -0.2614    -3.5634     0.5694 C.ar    
   6 C6             0.6894    -2.7258     0.0002 C.ar    
   7 C7             0.5600    -1.3560     0.1186 C.ar    
   8 N8            -0.1361    -4.9504     0.4473 N.pl3   
   9 C9             0.4095    -5.4965    -0.6984 C.ar    
  10 N10            0.6271    -6.8020    -0.7413 N.ar    
  11 C11            1.1499    -7.3642    -1.8254 C.ar    
  12 C12            1.4680    -6.5418    -2.9284 C.ar    
  13 C13            1.2183    -5.1640    -2.8330 C.ar    
  14 N14            0.6916    -4.6932    -1.7183 N.ar    
  15 N15            1.3781    -8.7160    -1.8759 N.am    
  16 C16            1.9089    -9.2863    -2.9742 C.2     
  17 C17            2.2528    -8.4670    -4.1402 C.2     
  18 C18            2.0249    -7.1044    -4.0983 C.2     
  19 C19            1.0404    -9.5499    -0.7197 C.3     
  20 C20           -0.4017   -10.0439    -0.8509 C.3     
  21 O21            2.1045   -10.4881    -2.9989 O.2     
  22 C22            2.8354    -9.0898    -5.3446 C.2     
  23 N23            4.1676    -9.2217    -5.6117 N.am    
  24 N24            2.1598    -9.6184    -6.3425 N.2     
  25 C25            3.0174   -10.0869    -7.2571 C.2     
  26 C26            4.2723    -9.8514    -6.8246 C.2     
  27 C27            0.5971     1.2666     1.6389 C.3     
  28 N28            1.2415     2.1827     0.6730 N.3     
  29 C29            0.1630     2.6241    -0.2479 C.3     
  30 C30           -0.6759     1.3379    -0.4538 C.3     
  31 S31            5.4195    -8.7159    -4.6529 S.o2    
  32 C32            5.2952    -6.9062    -4.6634 C.3     
  33 O33            5.1051    -9.2299    -3.3660 O.2     
  34 O34            6.5853    -9.1396    -5.3462 O.2     
  35 H35           -1.5455     0.9270     1.5026 H       
  36 H36           -2.2928    -1.2259     1.9172 H       
  37 H37           -2.0775    -3.6682     1.7045 H       
  38 H38            1.5268    -3.1453    -0.5375 H       
  39 H39            1.2987    -0.7042    -0.3240 H       
  40 H40           -0.4323    -5.5293     1.1670 H       
  41 H41            1.4488    -4.5035    -3.6559 H       
  42 H42            2.2698    -6.4804    -4.9451 H       
  43 H43            1.7151   -10.4051    -0.6790 H       
  44 H44            1.1419    -8.9633     0.1934 H       
  45 H45           -0.5032   -10.6305    -1.7640 H       
  46 H46           -0.6530   -10.6643     0.0093 H       
  47 H47           -1.0764    -9.1887    -0.8916 H       
  48 H48            2.7494   -10.5741    -8.1830 H       
  49 H49            5.1872   -10.1096    -7.3372 H       
  50 H50            0.2966     1.8179     2.5299 H       
  51 H51            1.2866     0.4667     1.9088 H       
  52 H52            1.6589     2.9707     1.1451 H       
  53 H53           -0.4397     3.4069     0.2126 H       
  54 H54            0.5814     2.9661    -1.1945 H       
  55 H55           -0.2124     0.6900    -1.1977 H       
  56 H56           -1.6981     1.5857    -0.7399 H       
  57 H57            4.3724    -6.6026    -4.1689 H       
  58 H58            6.1479    -6.4803    -4.1346 H       
  59 H59            5.2904    -6.5483    -5.6929 H       
@<TRIPOS>BOND
   1    1    2 1
   2    1   27 1
   3    1   30 1
   4    1   35 1
   5    2    3 ar
   6    2    7 ar
   7    3    4 ar
   8    3   36 1
   9    4    5 ar
  10    4   37 1
  11    5    6 ar
  12    5    8 1
  13    6    7 ar
  14    6   38 1
  15    7   39 1
  16    8    9 1
  17    8   40 1
  18    9   10 ar
  19    9   14 ar
  20   10   11 ar
  21   11   12 ar
  22   11   15 1
  23   12   13 ar
  24   12   18 1
  25   13   14 ar
  26   13   41 1
  27   15   16 am
  28   15   19 1
  29   16   17 1
  30   16   21 2
  31   17   18 2
  32   17   22 1
  33   18   42 1
  34   19   20 1
  35   19   43 1
  36   19   44 1
  37   20   45 1
  38   20   46 1
  39   20   47 1
  40   22   24 2
  41   22   23 1
  42   23   31 am
  43   23   26 1
  44   24   25 1
  45   25   26 2
  46   25   48 1
  47   26   49 1
  48   27   28 1
  49   27   50 1
  50   27   51 1
  51   28   29 1
  52   28   52 1
  53   29   30 1
  54   29   53 1
  55   29   54 1
  56   30   55 1
  57   30   56 1
  58   31   32 1
  59   31   33 2
  60   31   34 2
  61   32   57 1
  62   32   58 1
  63   32   59 1

#	End of record

