#	Name: ASD00451024
#	Creating user name:	WinNT
#	Creation time:	15. 06. 2019 18:36

#	Modifying user name:	WinNT
#	Modification time:	15. 06. 2019 18:36

#	Program:	/corina/corina34_cracker 3.40 0067  02.08.2006

@<TRIPOS>MOLECULE
ASD00451024
  58   63    0    0    0
SMALL
NO_CHARGES


@<TRIPOS>ATOM
   1 C1            -0.0018     1.3585     0.1393 C.ar    
   2 C2            -0.0443    -0.0265     0.1881 C.ar    
   3 N3             1.2295     2.0212     0.0989 N.am    
   4 C4            -1.1949     2.0921     0.1249 C.ar    
   5 C5            -1.2599    -0.6819     0.2277 C.ar    
   6 C6             2.3150     1.3966    -0.3991 C.2     
   7 C7            -2.4172     1.4238     0.1596 C.ar    
   8 C8            -2.4456     0.0405     0.2189 C.ar    
   9 O9             2.2411     0.2338    -0.7470 O.2     
  10 N10            3.4823     2.0608    -0.5116 N.am    
  11 O11           -3.6377    -0.6124     0.2524 O.3     
  12 C12            4.6321     1.3874    -0.9388 C.ar    
  13 C13           -4.0451    -1.1353     1.4375 C.ar    
  14 C14            4.5346     0.3764    -1.8858 C.ar    
  15 C15            5.8732     1.7328    -0.4208 C.ar    
  16 C16           -5.2969    -1.7323     1.5642 C.ar    
  17 C17           -3.2204    -1.0948     2.5595 C.ar    
  18 C18            5.6708    -0.2874    -2.3064 C.ar    
  19 C19            7.0076     1.0651    -0.8453 C.ar    
  20 N20           -6.3525    -1.9509     0.6813 N.am    
  21 C21           -5.6814    -2.2587     2.7976 C.ar    
  22 C22           -3.6697    -1.6368     3.7469 C.ar    
  23 C23            6.9051     0.0533    -1.7860 C.ar    
  24 C24           -7.3353    -2.5831     1.3511 C.2     
  25 N25           -6.9595    -2.7763     2.6290 N.am    
  26 N26           -4.8638    -2.1912     3.8375 N.ar    
  27 O27           -8.4031    -2.9211     0.8754 O.2     
  28 H28            1.3020     2.9303     0.4293 H       
  29 H29            3.5254     3.0057    -0.2964 H       
  30 H30           -6.3757    -1.6923    -0.2533 H       
  31 H31           -7.4898    -3.2102     3.3156 H       
  32 C32           -1.1575     3.5712     0.0733 C.ar    
  33 F33            8.2161     1.3998    -0.3424 F       
  34 C34           -1.6344     4.3202     1.1347 C.ar    
  35 C35           -1.6027     5.7097     1.0935 C.ar    
  36 C36           -1.1040     6.3712     0.0125 C.ar    
  37 C37           -0.6094     5.6500    -1.0881 C.ar    
  38 C38           -0.6280     4.2344    -1.0599 C.ar    
  39 C39           -0.0899     6.3090    -2.2159 C.ar    
  40 C40            0.3809     5.5799    -3.2646 C.ar    
  41 C41            0.3560     4.1872    -3.2377 C.ar    
  42 C42           -0.1345     3.5162    -2.1585 C.ar    
  43 H43            0.8745    -0.5941     0.1948 H       
  44 H44           -1.2880    -1.7609     0.2653 H       
  45 H45           -3.3406     1.9840     0.1490 H       
  46 H46            3.5707     0.1089    -2.2930 H       
  47 H47            5.9526     2.5220     0.3122 H       
  48 H48           -2.2404    -0.6447     2.5010 H       
  49 H49            5.5944    -1.0738    -3.0426 H       
  50 H50           -3.0321    -1.6066     4.6180 H       
  51 H51            7.7917    -0.4675    -2.1163 H       
  52 H52           -2.0358     3.8203     2.0039 H       
  53 H53           -1.9803     6.2742     1.9333 H       
  54 H54           -1.0889     7.4511     0.0007 H       
  55 H55           -0.0648     7.3881    -2.2504 H       
  56 H56            0.7792     6.0885    -4.1301 H       
  57 H57            0.7353     3.6316    -4.0826 H       
  58 H58           -0.1475     2.4363    -2.1509 H       
@<TRIPOS>BOND
   1    1    2 ar
   2    1    3 1
   3    1    4 ar
   4    2    5 ar
   5    2   43 1
   6    3   28 1
   7    3    6 am
   8    4   32 1
   9    4    7 ar
  10    5    8 ar
  11    5   44 1
  12    6    9 2
  13    6   10 am
  14    7    8 ar
  15    7   45 1
  16    8   11 1
  17   10   12 1
  18   10   29 1
  19   11   13 1
  20   12   14 ar
  21   12   15 ar
  22   13   16 ar
  23   13   17 ar
  24   14   18 ar
  25   14   46 1
  26   15   19 ar
  27   15   47 1
  28   16   20 1
  29   16   21 ar
  30   17   22 ar
  31   17   48 1
  32   18   23 ar
  33   18   49 1
  34   19   23 ar
  35   19   33 1
  36   20   30 1
  37   20   24 am
  38   21   26 ar
  39   21   25 1
  40   22   26 ar
  41   22   50 1
  42   23   51 1
  43   24   25 am
  44   24   27 2
  45   25   31 1
  46   32   34 ar
  47   32   38 ar
  48   34   35 ar
  49   34   52 1
  50   35   36 ar
  51   35   53 1
  52   36   37 ar
  53   36   54 1
  54   37   38 ar
  55   37   39 ar
  56   38   42 ar
  57   39   40 ar
  58   39   55 1
  59   40   41 ar
  60   40   56 1
  61   41   42 ar
  62   41   57 1
  63   42   58 1

#	End of record

