#	Name: ASD01410841
#	Creating user name:	WinNT
#	Creation time:	15. 06. 2019 19:18

#	Modifying user name:	WinNT
#	Modification time:	15. 06. 2019 19:18

#	Program:	/corina/corina34_cracker 3.40 0067  02.08.2006

@<TRIPOS>MOLECULE
ASD01410841
 113  119    0    0    0
SMALL
NO_CHARGES


@<TRIPOS>ATOM
   1 C1             3.1782    -2.8493    -3.8258 C.3     
   2 C2             3.8331    -4.2499    -3.8009 C.3     
   3 N3             4.0272    -4.5410    -2.3655 N.am    
   4 C4             3.0178    -3.7986    -1.6004 C.3     
   5 C5             2.2211    -2.9391    -2.6060 C.3     
   6 O6             4.1544    -1.8227    -3.6380 O.3     
   7 C7             2.0921    -4.7620    -0.9033 C.2     
   8 O8             2.2542    -5.9574    -1.0291 O.2     
   9 N9             1.0841    -4.2953    -0.1401 N.am    
  10 C10            5.2191    -4.1844    -4.4520 C.3     
  11 N11            5.9259    -5.4311    -4.1317 N.am    
  12 C12            6.0998    -5.8545    -2.7441 C.3     
  13 C13            4.9987    -5.3253    -1.8688 C.2     
  14 O14            4.9867    -5.6118    -0.6904 O.2     
  15 C15            6.0971    -7.3833    -2.6829 C.3     
  16 C16            6.1611    -7.8354    -1.2226 C.3     
  17 C17            4.8158    -7.9172    -3.3264 C.3     
  18 C18            0.1097    -5.2257     0.4353 C.3     
  19 C19           -0.7710    -5.9405    -0.5569 C.2     
  20 N20           -0.7219    -5.6094    -1.8625 N.am    
  21 O21           -1.5239    -6.8137    -0.1807 O.2     
  22 S22           -1.7736    -6.3080    -2.9340 S.o2    
  23 C23           -3.4080    -5.7160    -2.4152 C.3     
  24 C24            0.5221    -5.9916     1.6940 C.3     
  25 C25           -0.5035    -4.8592     1.7883 C.3     
  26 C26           -4.6284    -6.2815    -3.1445 C.3     
  27 C27           -4.3283    -6.7124    -1.7074 C.3     
  28 O28           -1.4165    -5.7489    -4.1906 O.2     
  29 O29           -1.6478    -7.7023    -2.6901 O.2     
  30 C30            0.0084    -7.4245     1.8491 C.3     
  31 C31            0.6270    -8.0556     3.0981 C.3     
  32 C32            3.8357    -0.5815    -4.0818 C.ar    
  33 C33            4.7594     0.4851    -3.9808 C.ar    
  34 C34            2.6126    -0.3285    -4.6452 C.ar    
  35 C35            2.3078     0.9629    -5.0966 C.ar    
  36 N36            3.1767     1.9543    -4.9933 N.ar    
  37 C37            4.3867     1.7663    -4.4571 C.ar    
  38 C38            0.9849     1.2225    -5.7024 C.2     
  39 S39           -0.2943     0.0297    -5.9142 S.3     
  40 C40            5.3016     2.8286    -4.3524 C.ar    
  41 C41            6.5411     2.6061    -3.7951 C.ar    
  42 C42            6.8991     1.3364    -3.3329 C.ar    
  43 C43            6.0299     0.2925    -3.4192 C.ar    
  44 Cl44           4.8717     4.4109    -4.9225 Cl      
  45 O45            7.4261     3.6320    -3.6939 O.3     
  46 C46            8.6954     3.3384    -3.1068 C.3     
  47 N47            0.5756     2.3711    -6.1603 N.2     
  48 C48           -0.6336     2.4161    -6.6649 C.2     
  49 C49           -1.3159     1.2638    -6.6491 C.2     
  50 C50           -1.2201     3.6859    -7.2258 C.3     
  51 C51           -0.9969     3.7259    -8.7389 C.3     
  52 C52           -2.7207     3.7287    -6.9303 C.3     
  53 C53            6.4191    -6.1929    -5.1281 C.2     
  54 C54            9.5500     4.6071    -3.0786 C.3     
  55 O55            9.7408     5.0826    -4.4126 O.3     
  56 C56           10.8122     6.0185    -4.5484 C.3     
  57 O57            8.8882     5.6102    -2.3054 O.3     
  58 C58            9.7453     6.6669    -1.8685 C.3     
  59 C59            6.3226    -5.7209    -6.5560 C.3     
  60 O60            6.9405    -7.2584    -4.8756 O.2     
  61 H61            2.6221    -2.6934    -4.7502 H       
  62 H62            3.1945    -4.9952    -4.2751 H       
  63 H63            3.5064    -3.1554    -0.8685 H       
  64 H64            2.0254    -1.9484    -2.1959 H       
  65 H65            1.2899    -3.4336    -2.8826 H       
  66 H66            1.0038    -3.3434     0.0282 H       
  67 H67            5.1149    -4.0865    -5.5326 H       
  68 H68            5.7733    -3.3336    -4.0555 H       
  69 H69            7.0569    -5.4855    -2.3757 H       
  70 H70            6.9624    -7.7700    -3.2212 H       
  71 H71            5.2957    -7.4487    -0.6843 H       
  72 H72            6.1591    -8.9245    -1.1791 H       
  73 H73            7.0739    -7.4550    -0.7642 H       
  74 H74            4.7702    -7.5951    -4.3667 H       
  75 H75            4.8138    -9.0063    -3.2828 H       
  76 H76            3.9504    -7.5305    -2.7881 H       
  77 H77           -0.0705    -4.9619    -2.1745 H       
  78 H78           -3.4510    -4.6752    -2.0945 H       
  79 H79            1.5184    -5.8033     2.0939 H       
  80 H80           -0.1816    -3.9260     2.2506 H       
  81 H81           -1.5437    -5.1353     1.9610 H       
  82 H82           -5.4744    -5.6128    -3.3031 H       
  83 H83           -4.4492    -7.0093    -3.9359 H       
  84 H84           -3.9517    -7.7237    -1.5534 H       
  85 H85           -4.9769    -6.3272    -0.9206 H       
  86 H86           -1.0770    -7.4126     1.9476 H       
  87 H87            0.2873    -8.0074     0.9713 H       
  88 H88            1.7125    -8.0674     2.9996 H       
  89 H89            0.3482    -7.4726     3.9759 H       
  90 H90            0.2611    -9.0763     3.2086 H       
  91 H91            1.8859    -1.1217    -4.7414 H       
  92 H92            7.8761     1.1826    -2.8990 H       
  93 H93            6.3192    -0.6834    -3.0581 H       
  94 H94            8.5498     2.9757    -2.0892 H       
  95 H95            9.2002     2.5732    -3.6965 H       
  96 H96           -2.3190     1.1165    -7.0211 H       
  97 H97           -0.7342     4.5455    -6.7641 H       
  98 H98           -1.4211     4.6444    -9.1446 H       
  99 H99            0.0721     3.6955    -8.9495 H       
 100 H100          -1.4828     2.8664    -9.2007 H       
 101 H101          -2.8796     3.7002    -5.8523 H       
 102 H102          -3.1449     4.6471    -7.3360 H       
 103 H103          -3.2065     2.8691    -7.3921 H       
 104 H104          10.5182     4.3831    -2.6308 H       
 105 H105          11.0874     6.1057    -5.5995 H       
 106 H106          10.4942     6.9916    -4.1741 H       
 107 H107          11.6721     5.6720    -3.9752 H       
 108 H108          10.6300     6.2439    -1.3926 H       
 109 H109          10.0466     7.2685    -2.7260 H       
 110 H110           9.2130     7.2943    -1.1535 H       
 111 H111           5.8132    -4.7577    -6.5866 H       
 112 H112           7.3244    -5.6155    -6.9723 H       
 113 H113           5.7603    -6.4480    -7.1419 H       
@<TRIPOS>BOND
   1    1    2 1
   2    1    6 1
   3    1    5 1
   4    1   61 1
   5    2    3 1
   6    2   10 1
   7    2   62 1
   8    3    4 1
   9    3   13 am
  10    4    5 1
  11    4    7 1
  12    4   63 1
  13    5   64 1
  14    5   65 1
  15    6   32 1
  16    7    8 2
  17    7    9 am
  18    9   18 1
  19    9   66 1
  20   10   11 1
  21   10   67 1
  22   10   68 1
  23   11   12 1
  24   11   53 am
  25   12   13 1
  26   12   15 1
  27   12   69 1
  28   13   14 2
  29   15   16 1
  30   15   17 1
  31   15   70 1
  32   16   71 1
  33   16   72 1
  34   16   73 1
  35   17   74 1
  36   17   75 1
  37   17   76 1
  38   18   19 1
  39   18   24 1
  40   18   25 1
  41   19   20 am
  42   19   21 2
  43   20   22 am
  44   20   77 1
  45   22   23 1
  46   22   28 2
  47   22   29 2
  48   23   26 1
  49   23   27 1
  50   23   78 1
  51   24   25 1
  52   24   30 1
  53   24   79 1
  54   25   80 1
  55   25   81 1
  56   26   27 1
  57   26   82 1
  58   26   83 1
  59   27   84 1
  60   27   85 1
  61   30   31 1
  62   30   86 1
  63   30   87 1
  64   31   88 1
  65   31   89 1
  66   31   90 1
  67   32   33 ar
  68   32   34 ar
  69   33   37 ar
  70   33   43 ar
  71   34   35 ar
  72   34   91 1
  73   35   36 ar
  74   35   38 1
  75   36   37 ar
  76   37   40 ar
  77   38   47 2
  78   38   39 1
  79   39   49 1
  80   40   41 ar
  81   40   44 1
  82   41   42 ar
  83   41   45 1
  84   42   43 ar
  85   42   92 1
  86   43   93 1
  87   45   46 1
  88   46   54 1
  89   46   94 1
  90   46   95 1
  91   47   48 1
  92   48   49 2
  93   48   50 1
  94   49   96 1
  95   50   51 1
  96   50   52 1
  97   50   97 1
  98   51   98 1
  99   51   99 1
 100   51  100 1
 101   52  101 1
 102   52  102 1
 103   52  103 1
 104   53   59 1
 105   53   60 2
 106   54   55 1
 107   54   57 1
 108   54  104 1
 109   55   56 1
 110   56  105 1
 111   56  106 1
 112   56  107 1
 113   57   58 1
 114   58  108 1
 115   58  109 1
 116   58  110 1
 117   59  111 1
 118   59  112 1
 119   59  113 1

#	End of record

