#	Name: ASD02500153
#	Creating user name:	WinNT
#	Creation time:	15. 06. 2019 20:22

#	Modifying user name:	WinNT
#	Modification time:	15. 06. 2019 20:22

#	Program:	/corina/corina34_cracker 3.40 0067  02.08.2006

@<TRIPOS>MOLECULE
ASD02500153
  62   66    0    0    0
SMALL
NO_CHARGES


@<TRIPOS>ATOM
   1 N1            -1.0813     0.2248     0.9362 N.am    
   2 C2            -0.8085    -0.6128    -0.2401 C.3     
   3 C3             0.1111     0.1628    -1.1915 C.3     
   4 N4             1.2448     0.6925    -0.4208 N.am    
   5 C5             0.9720     1.5302     0.7555 C.3     
   6 C6             0.0524     0.7545     1.7069 C.3     
   7 C7            -2.3485     0.5068     1.2984 C.2     
   8 O8            -2.5644     1.1298     2.3201 O.2     
   9 N9            -3.3763     0.0983     0.5283 N.am    
  10 C10            2.5121     0.4147    -0.7860 C.2     
  11 C11            3.6399     1.0452    -0.0742 C.ar    
  12 C12            4.8343     0.3419     0.1078 C.ar    
  13 C13            5.8846     0.9328     0.7723 C.ar    
  14 C14            5.7585     2.2295     1.2630 C.ar    
  15 C15            4.5702     2.9323     1.0838 C.ar    
  16 C16            3.5185     2.3492     0.4147 C.ar    
  17 O17            2.7257    -0.3556    -1.7023 O.2     
  18 S18            7.2899     4.3635     1.5442 S.o2    
  19 O19            6.1116     5.1576     1.5606 O.2     
  20 O20            8.4312     4.6497     2.3410 O.2     
  21 N21            6.8216     2.8237     1.9340 N.am    
  22 N22            9.7409     3.0047     0.4624 N.ar    
  23 C23           10.8399     2.3615     0.1514 C.ar    
  24 C24           11.3152     2.3122    -1.1575 C.ar    
  25 C25           10.6305     2.9446    -2.1556 C.ar    
  26 C26            9.4504     3.6340    -1.8181 C.ar    
  27 C27            8.6938     4.3079    -2.7898 C.ar    
  28 C28            7.5581     4.9636    -2.4231 C.ar    
  29 C29            7.1359     4.9742    -1.0955 C.ar    
  30 C30            7.8455     4.3322    -0.1276 C.ar    
  31 C31            9.0236     3.6445    -0.4668 C.ar    
  32 C32           -4.6949     0.3455     0.9312 C.ar    
  33 C33           -5.7187    -0.5036     0.5249 C.ar    
  34 C34           -7.0188    -0.2561     0.9253 C.ar    
  35 C35           -7.3004     0.8340     1.7286 C.ar    
  36 C36           -6.2842     1.6791     2.1335 C.ar    
  37 C37           -4.9818     1.4349     1.7414 C.ar    
  38 F38           -5.4435    -1.5681    -0.2601 F       
  39 H39           -0.3175    -1.5343     0.0729 H       
  40 H40           -1.7444    -0.8480    -0.7468 H       
  41 H41            0.4785    -0.5050    -1.9706 H       
  42 H42           -0.4411     0.9869    -1.6431 H       
  43 H43            1.9080     1.7653     1.2622 H       
  44 H44            0.4810     2.4517     0.4425 H       
  45 H45           -0.3150     1.4224     2.4860 H       
  46 H46            0.6047    -0.0696     2.1585 H       
  47 H47           -3.2029    -0.3669    -0.3050 H       
  48 H48            4.9326    -0.6641    -0.2724 H       
  49 H49            6.8074     0.3899     0.9135 H       
  50 H50            4.4752     3.9378     1.4663 H       
  51 H51            2.5987     2.8968     0.2715 H       
  52 H52            7.2889     2.3363     2.6305 H       
  53 H53           11.3918     1.8567     0.9304 H       
  54 H54           12.2245     1.7745    -1.3824 H       
  55 H55           10.9847     2.9170    -3.1755 H       
  56 H56            9.0108     4.3065    -3.8223 H       
  57 H57            6.9767     5.4818    -3.1713 H       
  58 H58            6.2320     5.5021    -0.8297 H       
  59 H59           -7.8150    -0.9144     0.6103 H       
  60 H60           -8.3167     1.0256     2.0399 H       
  61 H61           -6.5080     2.5296     2.7605 H       
  62 H62           -4.1883     2.0935     2.0623 H       
@<TRIPOS>BOND
   1    1    2 1
   2    1    6 1
   3    1    7 am
   4    2    3 1
   5    2   39 1
   6    2   40 1
   7    3    4 1
   8    3   41 1
   9    3   42 1
  10    4    5 1
  11    4   10 am
  12    5    6 1
  13    5   43 1
  14    5   44 1
  15    6   45 1
  16    6   46 1
  17    7    8 2
  18    7    9 am
  19    9   32 1
  20    9   47 1
  21   10   11 1
  22   10   17 2
  23   11   12 ar
  24   11   16 ar
  25   12   13 ar
  26   12   48 1
  27   13   14 ar
  28   13   49 1
  29   14   15 ar
  30   14   21 1
  31   15   16 ar
  32   15   50 1
  33   16   51 1
  34   18   19 2
  35   18   20 2
  36   18   21 am
  37   18   30 1
  38   21   52 1
  39   22   23 ar
  40   22   31 ar
  41   23   24 ar
  42   23   53 1
  43   24   25 ar
  44   24   54 1
  45   25   26 ar
  46   25   55 1
  47   26   27 ar
  48   26   31 ar
  49   27   28 ar
  50   27   56 1
  51   28   29 ar
  52   28   57 1
  53   29   30 ar
  54   29   58 1
  55   30   31 ar
  56   32   33 ar
  57   32   37 ar
  58   33   34 ar
  59   33   38 1
  60   34   35 ar
  61   34   59 1
  62   35   36 ar
  63   35   60 1
  64   36   37 ar
  65   36   61 1
  66   37   62 1

#	End of record

