#	Name: ASD01880298
#	Creating user name:	WinNT
#	Creation time:	15. 06. 2019 19:40

#	Modifying user name:	WinNT
#	Modification time:	15. 06. 2019 19:40

#	Program:	/corina/corina34_cracker 3.40 0067  02.08.2006

@<TRIPOS>MOLECULE
ASD01880298
  41   43    0    0    0
SMALL
NO_CHARGES


@<TRIPOS>ATOM
   1 C1            -0.0163     1.3493     0.0095 C.2     
   2 C2             0.0021    -0.0041     0.0020 C.2     
   3 N3            -1.1557    -0.7131     0.0093 N.am    
   4 C4            -2.3471    -0.0857     0.0245 C.2     
   5 C5            -2.4025     1.3185     0.0330 C.2     
   6 C6            -1.2403     2.0325     0.0307 C.2     
   7 O7            -3.3795    -0.7370     0.0305 O.2     
   8 C8            -1.1083    -2.1773    -0.0000 C.3     
   9 C9            -1.0779    -2.6879     1.4175 C.ar    
  10 C10           -2.2606    -2.9608     2.0791 C.ar    
  11 C11           -2.2334    -3.4291     3.3792 C.ar    
  12 C12           -1.0221    -3.6248     4.0185 C.ar    
  13 C13            0.1613    -3.3515     3.3558 C.ar    
  14 C14            0.1329    -2.8885     2.0538 C.ar    
  15 C15            1.2781     2.1210     0.0012 C.3     
  16 Cl16          -0.9871    -4.2125     5.6516 Cl      
  17 C17            1.3349     3.0084    -1.2438 C.3     
  18 C18            2.6490     3.7919    -1.2522 C.3     
  19 C19            2.7296     4.6659     0.0011 C.3     
  20 C20            2.6728     3.7785     1.2461 C.3     
  21 C21            1.3587     2.9950     1.2545 C.3     
  22 H22            0.9478    -0.5255    -0.0102 H       
  23 H23           -3.3553     1.8270     0.0449 H       
  24 H24           -1.2628     3.1122     0.0372 H       
  25 H25           -1.9911    -2.5662    -0.5074 H       
  26 H26           -0.2122    -2.5085    -0.5248 H       
  27 H27           -3.2061    -2.8077     1.5801 H       
  28 H28           -3.1574    -3.6420     3.8961 H       
  29 H29            1.1071    -3.5040     3.8543 H       
  30 H30            1.0566    -2.6752     1.5364 H       
  31 H31            2.1164     1.4244    -0.0105 H       
  32 H32            1.2774     2.3858    -2.1367 H       
  33 H33            0.4966     3.7050    -1.2321 H       
  34 H34            3.4873     3.0954    -1.2639 H       
  35 H35            2.6894     4.4241    -2.1392 H       
  36 H36            3.6658     5.2241    -0.0049 H       
  37 H37            1.8913     5.3625     0.0128 H       
  38 H38            3.5111     3.0819     1.2344 H       
  39 H39            2.7303     4.4011     2.1390 H       
  40 H40            0.5204     3.6916     1.2662 H       
  41 H41            1.3183     2.3628     2.1415 H       
@<TRIPOS>BOND
   1    1    2 2
   2    1   15 1
   3    1    6 1
   4    2    3 1
   5    2   22 1
   6    3    4 am
   7    3    8 1
   8    4    5 1
   9    4    7 2
  10    5    6 2
  11    5   23 1
  12    6   24 1
  13    8    9 1
  14    8   25 1
  15    8   26 1
  16    9   10 ar
  17    9   14 ar
  18   10   11 ar
  19   10   27 1
  20   11   12 ar
  21   11   28 1
  22   12   13 ar
  23   12   16 1
  24   13   14 ar
  25   13   29 1
  26   14   30 1
  27   15   17 1
  28   15   21 1
  29   15   31 1
  30   17   18 1
  31   17   32 1
  32   17   33 1
  33   18   19 1
  34   18   34 1
  35   18   35 1
  36   19   20 1
  37   19   36 1
  38   19   37 1
  39   20   21 1
  40   20   38 1
  41   20   39 1
  42   21   40 1
  43   21   41 1

#	End of record

