#	Name: ASD02408441
#	Creating user name:	WinNT
#	Creation time:	15. 06. 2019 20:21

#	Modifying user name:	WinNT
#	Modification time:	15. 06. 2019 20:21

#	Program:	/corina/corina34_cracker 3.40 0067  02.08.2006

@<TRIPOS>MOLECULE
ASD02408441
  28   29    0    0    0
SMALL
NO_CHARGES


@<TRIPOS>ATOM
   1 C1            -0.0168     1.3888     0.0097 C.2     
   2 C2             0.0021    -0.0041     0.0020 C.2     
   3 N3            -1.2812    -0.4183     0.0120 N.pl3   
   4 N4            -2.1111     0.7078     0.0260 N.2     
   5 C5            -1.3754     1.7831     0.0310 C.2     
   6 C6            -1.7305    -1.8126     0.0084 C.3     
   7 C7             1.1508     2.2782     0.0033 C.2     
   8 N8             1.1232    -0.8087    -0.0137 N.pl3   
   9 O9             2.2733     1.8086    -0.0099 O.2     
  10 N10            0.9796     3.6150     0.0121 N.am    
  11 C11           -2.5680    -2.0998     1.2669 C.3     
  12 C12           -3.9695    -2.5193     0.7773 C.3     
  13 C13           -3.7290    -3.0409    -0.6612 C.3     
  14 C14           -2.6522    -2.0677    -1.2020 C.3     
  15 H15           -1.7398     2.7997     0.0420 H       
  16 H16           -0.8707    -2.4816    -0.0286 H       
  17 H17            2.0070    -0.4090    -0.0202 H       
  18 H18            1.0274    -1.7740    -0.0182 H       
  19 H19            0.0848     3.9894     0.0227 H       
  20 H20            1.7512     4.2028     0.0079 H       
  21 H21           -2.1152    -2.9087     1.8402 H       
  22 H22           -2.6402    -1.2017     1.8803 H       
  23 H23           -4.3725    -3.3117     1.4080 H       
  24 H24           -4.6418    -1.6614     0.7646 H       
  25 H25           -3.3515    -4.0633    -0.6433 H       
  26 H26           -4.6416    -2.9752    -1.2535 H       
  27 H27           -3.1118    -1.1368    -1.5344 H       
  28 H28           -2.0940    -2.5304    -2.0159 H       
@<TRIPOS>BOND
   1    1    2 2
   2    1    7 1
   3    1    5 1
   4    2    3 1
   5    2    8 1
   6    3    4 1
   7    3    6 1
   8    4    5 2
   9    5   15 1
  10    6   11 1
  11    6   14 1
  12    6   16 1
  13    7    9 2
  14    7   10 am
  15    8   17 1
  16    8   18 1
  17   10   19 1
  18   10   20 1
  19   11   12 1
  20   11   21 1
  21   11   22 1
  22   12   13 1
  23   12   23 1
  24   12   24 1
  25   13   14 1
  26   13   25 1
  27   13   26 1
  28   14   27 1
  29   14   28 1

#	End of record

