#	Name: ASD01380015
#	Creating user name:	WinNT
#	Creation time:	15. 06. 2019 19:16

#	Modifying user name:	WinNT
#	Modification time:	15. 06. 2019 19:16

#	Program:	/corina/corina34_cracker 3.40 0067  02.08.2006

@<TRIPOS>MOLECULE
ASD01380015
  60   63    0    0    0
SMALL
NO_CHARGES


@<TRIPOS>ATOM
   1 O1             0.1795     1.4986    -0.6167 O.3     
   2 C2             0.2684     0.0747    -0.5350 C.3     
   3 C3            -1.1164    -0.5490    -0.2352 C.3     
   4 O4            -0.9763    -1.7041     0.6333 O.3     
   5 C5            -1.0588    -1.4853     1.9605 C.2     
   6 O6            -1.2428    -0.3599     2.3805 O.2     
   7 C7            -0.9259    -2.6102     2.9020 C.ar    
   8 C8            -0.8335    -3.9203     2.4239 C.ar    
   9 C9            -0.7093    -4.9684     3.3105 C.ar    
  10 Br10          -0.5839    -6.7400     2.6611 Br      
  11 C11           -0.6755    -4.7304     4.6761 C.ar    
  12 C12           -0.7656    -3.4426     5.1634 C.ar    
  13 C13           -0.8854    -2.3727     4.2855 C.ar    
  14 N14           -0.9758    -1.0758     4.7739 N.pl3   
  15 C15           -1.6462    -0.9750    -1.6181 C.3     
  16 O16           -0.6676    -0.5755    -2.5923 O.3     
  17 C17            0.6082    -0.5384    -1.9174 C.3     
  18 N18            1.1495    -1.8910    -1.7628 N.pl3   
  19 C19            0.4390    -3.0532    -1.8058 C.2     
  20 N20            1.2389    -4.0655    -1.6316 N.2     
  21 C21            2.5038    -3.6132    -1.4673 C.2     
  22 C22            2.4612    -2.2184    -1.5549 C.2     
  23 N23            3.5934    -1.5123    -1.4258 N.2     
  24 C24            4.7378    -2.1015    -1.2195 C.2     
  25 N25            4.8494    -3.4504    -1.1247 N.am    
  26 C26            3.7570    -4.2373    -1.2469 C.2     
  27 O27            3.8464    -5.4501    -1.1628 O.2     
  28 C28           -2.9781    -0.2777    -1.9025 C.3     
  29 O29           -3.5184    -0.7660    -3.1320 O.3     
  30 P30           -4.9162    -0.2498    -3.7418 P.3     
  31 O31           -4.8825     1.2239    -3.8740 O.2     
  32 O32           -5.1474    -0.9133    -5.1904 O.3     
  33 P33           -6.0681    -0.5403    -6.4574 P.3     
  34 O34           -5.9673     0.9109    -6.7302 O.2     
  35 O35           -5.5670    -1.3648    -7.7462 O.3     
  36 P36           -5.7515    -1.1778    -9.3347 P.3     
  37 O37           -7.1347    -0.7369    -9.6221 O.2     
  38 O38           -4.7130    -0.0695    -9.8688 O.3     
  39 O39           -5.4697    -2.5788   -10.0763 O.3     
  40 O40           -7.5995    -0.9213    -6.1386 O.3     
  41 O41           -6.1193    -0.6731    -2.7594 O.3     
  42 H42            1.0219     1.9352    -0.8030 H       
  43 H43            1.0006    -0.2251     0.2147 H       
  44 H44           -1.7776     0.1898     0.2178 H       
  45 H45           -0.8597    -4.1112     1.3612 H       
  46 H46           -0.5783    -5.5583     5.3628 H       
  47 H47           -0.7389    -3.2659     6.2285 H       
  48 H48           -1.0577    -0.9215     5.7280 H       
  49 H49           -0.9571    -0.3243     4.1609 H       
  50 H50           -1.7781    -2.0566    -1.6474 H       
  51 H51            1.3098     0.0975    -2.4573 H       
  52 H52           -0.6275    -3.1238    -1.9606 H       
  53 H53            5.6266    -1.4958    -1.1211 H       
  54 H54            5.7186    -3.8527    -0.9712 H       
  55 H55           -3.6765    -0.4838    -1.0914 H       
  56 H56           -2.8163     0.7975    -1.9782 H       
  57 H57           -3.7850    -0.2928    -9.7137 H       
  58 H58           -5.5629    -2.5404   -11.0380 H       
  59 H59           -7.7404    -1.8592    -5.9499 H       
  60 H60           -6.2012    -1.6274    -2.6263 H       
@<TRIPOS>BOND
   1    1    2 1
   2    1   42 1
   3    2    3 1
   4    2   17 1
   5    2   43 1
   6    3    4 1
   7    3   15 1
   8    3   44 1
   9    4    5 1
  10    5    6 2
  11    5    7 1
  12    7    8 ar
  13    7   13 ar
  14    8    9 ar
  15    8   45 1
  16    9   10 1
  17    9   11 ar
  18   11   12 ar
  19   11   46 1
  20   12   13 ar
  21   12   47 1
  22   13   14 1
  23   14   48 1
  24   14   49 1
  25   15   16 1
  26   15   28 1
  27   15   50 1
  28   16   17 1
  29   17   18 1
  30   17   51 1
  31   18   19 1
  32   18   22 1
  33   19   20 2
  34   19   52 1
  35   20   21 1
  36   21   22 2
  37   21   26 1
  38   22   23 1
  39   23   24 2
  40   24   25 1
  41   24   53 1
  42   25   26 am
  43   25   54 1
  44   26   27 2
  45   28   29 1
  46   28   55 1
  47   28   56 1
  48   29   30 1
  49   30   31 2
  50   30   32 1
  51   30   41 1
  52   32   33 1
  53   33   34 2
  54   33   35 1
  55   33   40 1
  56   35   36 1
  57   36   37 2
  58   36   38 1
  59   36   39 1
  60   38   57 1
  61   39   58 1
  62   40   59 1
  63   41   60 1

#	End of record

