#	Name: ASD01811923
#	Creating user name:	WinNT
#	Creation time:	15. 06. 2019 19:27

#	Modifying user name:	WinNT
#	Modification time:	15. 06. 2019 19:27

#	Program:	/corina/corina34_cracker 3.40 0067  02.08.2006

@<TRIPOS>MOLECULE
ASD01811923
  69   73    0    0    0
SMALL
NO_CHARGES


@<TRIPOS>ATOM
   1 C1            -0.0166     1.3752     0.0096 C.ar    
   2 C2             0.0021    -0.0041     0.0020 C.ar    
   3 C3             1.2069    -0.6854    -0.0127 C.ar    
   4 C4             2.4015     0.0090    -0.0199 C.ar    
   5 C5             2.3992     1.3949    -0.0129 C.ar    
   6 C6             1.1824     2.0872     0.0020 C.ar    
   7 C7             1.1687     3.5673     0.0096 C.2     
   8 C8             0.8638     4.2641     1.1700 C.2     
   9 C9             0.8600     5.6649     1.1413 C.2     
  10 N10            1.1485     6.3188     0.0010 N.am    
  11 C11            1.4484     5.6445    -1.1404 C.2     
  12 C12            1.4717     4.2950    -1.1639 C.2     
  13 C13            1.1388     7.7837    -0.0103 C.3     
  14 C14            0.1060     8.2791    -1.0247 C.3     
  15 C15            0.0958     9.8090    -1.0365 C.3     
  16 C16            1.4822    10.3252    -1.4268 C.3     
  17 C17            2.5150     9.8299    -0.4124 C.3     
  18 C18            2.5252     8.3000    -0.4006 C.3     
  19 O19            3.5721     2.0784    -0.0195 O.3     
  20 O20            0.5939     6.2940     2.1534 O.2     
  21 O21           -1.1889     7.7969    -0.6601 O.3     
  22 C22            4.7736     1.3050    -0.0337 C.3     
  23 C23            5.9651     2.2277    -0.0393 C.ar    
  24 C24            6.5202     2.6437     1.1574 C.ar    
  25 C25            7.6114     3.4888     1.1579 C.ar    
  26 C26            8.1537     3.9229    -0.0496 C.ar    
  27 C27            7.5907     3.5010    -1.2519 C.ar    
  28 C28            6.5030     2.6512    -1.2411 C.ar    
  29 C29            9.3272     4.8325    -0.0551 C.2     
  30 C30            9.9950     5.3364     1.0781 C.2     
  31 N31           10.9735     6.0986     0.6670 N.2     
  32 N32           10.9693     6.1116    -0.7331 N.pl3   
  33 C33            9.9585     5.3274    -1.1587 C.2     
  34 C34           11.9049     6.8463    -1.5880 C.3     
  35 C35           13.0518     5.9218    -2.0013 C.3     
  36 C36           11.1733     7.3412    -2.8373 C.3     
  37 H37           -0.9588     1.9031     0.0169 H       
  38 H38           -0.9271    -0.5546     0.0079 H       
  39 H39            1.2133    -1.7654    -0.0182 H       
  40 H40            3.3380    -0.5288    -0.0307 H       
  41 H41            0.6323     3.7344     2.0822 H       
  42 H42            1.6754     6.1965    -2.0405 H       
  43 H43            1.7166     3.7731    -2.0771 H       
  44 H44            0.8796     8.1531     0.9819 H       
  45 H45            0.3652     7.9098    -2.0169 H       
  46 H46           -0.6399    10.1619    -1.7591 H       
  47 H47           -0.1633    10.1783    -0.0442 H       
  48 H48            1.7414     9.9559    -2.4190 H       
  49 H49            1.4750    11.4151    -1.4352 H       
  50 H50            3.5027    10.1977    -0.6904 H       
  51 H51            2.2559    10.1992     0.5798 H       
  52 H52            3.2610     7.9471     0.3221 H       
  53 H53            2.7844     7.9307    -1.3928 H       
  54 H54           -1.8947     8.0729    -1.2607 H       
  55 H55            4.8086     0.6718     0.8528 H       
  56 H56            4.7934     0.6807    -0.9271 H       
  57 H57            6.0988     2.3068     2.0930 H       
  58 H58            8.0439     3.8133     2.0929 H       
  59 H59            8.0071     3.8349    -2.1908 H       
  60 H60            6.0685     2.3200    -2.1727 H       
  61 H61            9.7421     5.1291     2.1074 H       
  62 H62            9.6949     5.1286    -2.1870 H       
  63 H63           12.3052     7.6990    -1.0397 H       
  64 H64           13.7480     6.4684    -2.6375 H       
  65 H65           13.5730     5.5692    -1.1113 H       
  66 H66           12.6515     5.0690    -2.5497 H       
  67 H67           10.3562     7.9998    -2.5429 H       
  68 H68           11.8694     7.8878    -3.4734 H       
  69 H69           10.7730     6.4884    -3.3857 H       
@<TRIPOS>BOND
   1    1    2 ar
   2    1    6 ar
   3    1   37 1
   4    2    3 ar
   5    2   38 1
   6    3    4 ar
   7    3   39 1
   8    4    5 ar
   9    4   40 1
  10    5    6 ar
  11    5   19 1
  12    6    7 1
  13    7    8 2
  14    7   12 1
  15    8    9 1
  16    8   41 1
  17    9   10 am
  18    9   20 2
  19   10   11 1
  20   10   13 1
  21   11   12 2
  22   11   42 1
  23   12   43 1
  24   13   14 1
  25   13   18 1
  26   13   44 1
  27   14   15 1
  28   14   21 1
  29   14   45 1
  30   15   16 1
  31   15   46 1
  32   15   47 1
  33   16   17 1
  34   16   48 1
  35   16   49 1
  36   17   18 1
  37   17   50 1
  38   17   51 1
  39   18   52 1
  40   18   53 1
  41   19   22 1
  42   21   54 1
  43   22   23 1
  44   22   55 1
  45   22   56 1
  46   23   24 ar
  47   23   28 ar
  48   24   25 ar
  49   24   57 1
  50   25   26 ar
  51   25   58 1
  52   26   27 ar
  53   26   29 1
  54   27   28 ar
  55   27   59 1
  56   28   60 1
  57   29   30 1
  58   29   33 2
  59   30   31 2
  60   30   61 1
  61   31   32 1
  62   32   33 1
  63   32   34 1
  64   33   62 1
  65   34   35 1
  66   34   36 1
  67   34   63 1
  68   35   64 1
  69   35   65 1
  70   35   66 1
  71   36   67 1
  72   36   68 1
  73   36   69 1

#	End of record

