#	Name: ASD03430119
#	Creating user name:	WinNT
#	Creation time:	15. 06. 2019 20:40

#	Modifying user name:	WinNT
#	Modification time:	15. 06. 2019 20:40

#	Program:	/corina/corina34_cracker 3.40 0067  02.08.2006

@<TRIPOS>MOLECULE
ASD03430119
  49   54    0    0    0
SMALL
NO_CHARGES


@<TRIPOS>ATOM
   1 C1            -0.0167     1.3822     0.0096 C.ar    
   2 C2             0.0021    -0.0041     0.0020 C.ar    
   3 C3             1.2029    -0.6820    -0.0146 C.ar    
   4 C4             2.4086     0.0130    -0.0138 C.ar    
   5 C5             2.3860     1.4041    -0.0111 C.ar    
   6 C6             1.1815     2.0869     0.0020 C.ar    
   7 O7             3.4715    -0.8415    -0.0021 O.3     
   8 C8             1.5514    -2.1458    -0.0478 C.3     
   9 C9             3.0376    -2.1458    -0.4324 C.3     
  10 C10            0.4297    -3.8617     1.0083 C.ar    
  11 C11            1.3141    -2.8197     1.2707 C.ar    
  12 C12            0.7198    -2.9077    -1.0394 C.2     
  13 N13            0.1022    -3.8872    -0.3495 N.am    
  14 O14            0.6228    -2.6851    -2.2278 O.2     
  15 C15            1.7775    -2.5977     2.5546 C.ar    
  16 C16            1.3602    -3.4209     3.5944 C.ar    
  17 C17            0.4834    -4.4575     3.3391 C.ar    
  18 C18            0.0192    -4.6797     2.0585 C.ar    
  19 N19            2.6657    -1.5463     2.8068 N.am    
  20 O20           -1.2110     2.0359     0.0189 O.3     
  21 C21           -1.1862     3.4162     0.3984 C.3     
  22 C22           -0.0350     4.0993    -0.3523 C.3     
  23 O23            1.1870     3.4486     0.0110 O.3     
  24 C24           -0.8065    -4.8649    -0.9534 C.3     
  25 C25            4.1273    -1.6643     2.7462 C.3     
  26 C26            4.6720    -0.4321     3.5019 C.3     
  27 C27            3.5080     0.5738     3.3453 C.3     
  28 C28            2.2897    -0.2969     3.1300 C.2     
  29 O29            1.1409     0.0763     3.2404 O.2     
  30 H30           -0.9268    -0.5549     0.0094 H       
  31 H31            3.3146     1.9553    -0.0189 H       
  32 H32            3.1586    -2.2580    -1.5098 H       
  33 H33            3.5757    -2.9286     0.1022 H       
  34 H34            1.7204    -3.2507     4.5983 H       
  35 H35            0.1591    -5.0975     4.1463 H       
  36 H36           -0.6663    -5.4926     1.8695 H       
  37 H37           -2.1313     3.8884     0.1304 H       
  38 H38           -1.0248     3.4992     1.4732 H       
  39 H39           -0.1925     4.0094    -1.4271 H       
  40 H40            0.0119     5.1521    -0.0739 H       
  41 H41           -1.8260    -4.4804    -0.9233 H       
  42 H42           -0.5149    -5.0408    -1.9888 H       
  43 H43           -0.7546    -5.8009    -0.3973 H       
  44 H44            4.4523    -2.5818     3.2368 H       
  45 H45            4.4642    -1.6504     1.7096 H       
  46 H46            4.8477    -0.6649     4.5522 H       
  47 H47            5.5795    -0.0550     3.0304 H       
  48 H48            3.3974     1.1729     4.2491 H       
  49 H49            3.6719     1.2149     2.4791 H       
@<TRIPOS>BOND
   1    1    2 ar
   2    1    6 ar
   3    1   20 1
   4    2    3 ar
   5    2   30 1
   6    3    4 ar
   7    3    8 1
   8    4    5 ar
   9    4    7 1
  10    5    6 ar
  11    5   31 1
  12    6   23 1
  13    7    9 1
  14    8    9 1
  15    8   11 1
  16    8   12 1
  17    9   32 1
  18    9   33 1
  19   10   11 ar
  20   10   13 1
  21   10   18 ar
  22   11   15 ar
  23   12   13 am
  24   12   14 2
  25   13   24 1
  26   15   16 ar
  27   15   19 1
  28   16   17 ar
  29   16   34 1
  30   17   18 ar
  31   17   35 1
  32   18   36 1
  33   19   25 1
  34   19   28 am
  35   20   21 1
  36   21   22 1
  37   21   37 1
  38   21   38 1
  39   22   23 1
  40   22   39 1
  41   22   40 1
  42   24   41 1
  43   24   42 1
  44   24   43 1
  45   25   26 1
  46   25   44 1
  47   25   45 1
  48   26   27 1
  49   26   46 1
  50   26   47 1
  51   27   28 1
  52   27   48 1
  53   27   49 1
  54   28   29 2

#	End of record

