#	Name: ASD01912125
#	Creating user name:	WinNT
#	Creation time:	15. 06. 2019 19:59

#	Modifying user name:	WinNT
#	Modification time:	15. 06. 2019 19:59

#	Program:	/corina/corina34_cracker 3.40 0067  02.08.2006

@<TRIPOS>MOLECULE
ASD01912125
  44   47    0    0    0
SMALL
NO_CHARGES


@<TRIPOS>ATOM
   1 C1             0.0453     1.4285     0.2086 C.3     
   2 C2             0.0574    -0.0994     0.2949 C.3     
   3 C3            -1.3780    -0.6268     0.2345 C.3     
   4 C4            -2.1688    -0.0813     1.4278 C.3     
   5 N5            -2.0642     1.3842     1.4343 N.am    
   6 C6            -0.7294     1.9973     1.4015 C.3     
   7 C7            -5.4621     1.9776     0.5061 C.ar    
   8 C8            -4.5088     1.5226     1.4180 C.ar    
   9 C9            -3.1717     2.1515     1.4697 C.2     
  10 C10           -6.7087     1.3875     0.4622 C.ar    
  11 C11           -7.0158     0.3469     1.3197 C.ar    
  12 C12           -6.0743    -0.1109     2.2279 C.ar    
  13 C13           -4.8227     0.4718     2.2813 C.ar    
  14 O14           -3.0712     3.3606     1.5441 O.2     
  15 C15            1.4607     1.9451     0.2356 C.2     
  16 O16            2.3531     1.7648     1.2143 O.3     
  17 N17            3.3994     2.3071     0.9276 N.2     
  18 C18            3.3006     2.8845    -0.2417 C.2     
  19 N19            2.0494     2.6501    -0.6981 N.2     
  20 C20            4.3639     3.6490    -0.9392 C.ar    
  21 C21            5.6154     3.8054    -0.3465 C.ar    
  22 C22            6.6013     4.5166    -0.9988 C.ar    
  23 C23            6.3485     5.0754    -2.2413 C.ar    
  24 C24            5.1055     4.9223    -2.8342 C.ar    
  25 C25            4.1157     4.2078    -2.1915 C.ar    
  26 F26            7.3165     5.7719    -2.8762 F       
  27 F27           -6.3810    -1.1279     3.0626 F       
  28 H28           -0.4368     1.7367    -0.7192 H       
  29 H29            0.6289    -0.5058    -0.5395 H       
  30 H30            0.5178    -0.4064     1.2340 H       
  31 H31           -1.8472    -0.2993    -0.6932 H       
  32 H32           -1.3673    -1.7161     0.2726 H       
  33 H33           -3.2152    -0.3726     1.3366 H       
  34 H34           -1.7555    -0.4813     2.3537 H       
  35 H35           -0.1987     1.7668     2.3253 H       
  36 H36           -0.8261     3.0776     1.2930 H       
  37 H37           -5.2261     2.7933    -0.1613 H       
  38 H38           -7.4466     1.7396    -0.2435 H       
  39 H39           -7.9933    -0.1108     1.2816 H       
  40 H40           -4.0890     0.1150     2.9890 H       
  41 H41            5.8131     3.3708     0.6222 H       
  42 H42            7.5715     4.6382    -0.5401 H       
  43 H43            4.9124     5.3598    -3.8026 H       
  44 H44            3.1473     4.0887    -2.6545 H       
@<TRIPOS>BOND
   1    1    2 1
   2    1   15 1
   3    1    6 1
   4    1   28 1
   5    2    3 1
   6    2   29 1
   7    2   30 1
   8    3    4 1
   9    3   31 1
  10    3   32 1
  11    4    5 1
  12    4   33 1
  13    4   34 1
  14    5    6 1
  15    5    9 am
  16    6   35 1
  17    6   36 1
  18    7    8 ar
  19    7   10 ar
  20    7   37 1
  21    8    9 1
  22    8   13 ar
  23    9   14 2
  24   10   11 ar
  25   10   38 1
  26   11   12 ar
  27   11   39 1
  28   12   13 ar
  29   12   27 1
  30   13   40 1
  31   15   16 1
  32   15   19 2
  33   16   17 1
  34   17   18 2
  35   18   19 1
  36   18   20 1
  37   20   21 ar
  38   20   25 ar
  39   21   22 ar
  40   21   41 1
  41   22   23 ar
  42   22   42 1
  43   23   24 ar
  44   23   26 1
  45   24   25 ar
  46   24   43 1
  47   25   44 1

#	End of record

