#	Name: ASD00450012
#	Creating user name:	WinNT
#	Creation time:	15. 06. 2019 18:35

#	Modifying user name:	WinNT
#	Modification time:	15. 06. 2019 18:35

#	Program:	/corina/corina34_cracker 3.40 0067  02.08.2006

@<TRIPOS>MOLECULE
ASD00450012
  69   74    0    0    0
SMALL
NO_CHARGES


@<TRIPOS>ATOM
   1 C1             1.2062     1.5425     4.0281 C.2     
   2 N2             0.8743     0.4133     3.3478 N.am    
   3 C3             1.7972    -0.2377     2.6020 C.2     
   4 C4             3.1551     0.3253     2.5626 C.ar    
   5 C5             3.4073     1.5026     3.3015 C.ar    
   6 N6             2.3955     2.0622     4.0121 N.2     
   7 C7             4.1774    -0.2680     1.8258 C.ar    
   8 C8             5.4367     0.3081     1.8274 C.ar    
   9 C9             5.6800     1.4707     2.5589 C.ar    
  10 C10            4.6868     2.0626     3.2854 C.ar    
  11 N11            6.4703    -0.2792     1.0918 N.pl3   
  12 C12            7.3594     0.5234     0.3729 C.ar    
  13 C13            7.1235     1.8857     0.2521 C.ar    
  14 C14            8.0093     2.6793    -0.4630 C.ar    
  15 C15            9.1288     2.1083    -1.0554 C.ar    
  16 C16            9.3609     0.7516    -0.9333 C.ar    
  17 C17            8.4845    -0.0405    -0.2174 C.ar    
  18 C18            8.7416    -1.5197    -0.0868 C.3     
  19 N19            7.7750     4.0523    -0.5876 N.am    
  20 C20            8.8100     4.9156    -0.5837 C.2     
  21 C21            8.5603     6.3636    -0.6535 C.2     
  22 O22            9.9508     4.4973    -0.5224 O.2     
  23 N23            7.3552     6.9607    -0.7243 N.2     
  24 C24            7.5149     8.2609    -0.7716 C.2     
  25 N25            8.8501     8.5526    -0.7324 N.pl3   
  26 C26            9.5252     7.3643    -0.6524 C.2     
  27 C27           10.9885     7.1816    -0.5864 C.ar    
  28 C28           11.7577     7.9799     0.2633 C.ar    
  29 C29           13.1245     7.8033     0.3203 C.ar    
  30 C30           13.7339     6.8383    -0.4622 C.ar    
  31 C31           12.9781     6.0439    -1.3063 C.ar    
  32 C32           11.6097     6.2056    -1.3691 C.ar    
  33 C33           -0.4944    -0.1039     3.4232 C.3     
  34 O34            1.5143    -1.2501     1.9880 O.2     
  35 C35           15.2278     6.6520    -0.3951 C.3     
  36 C36            6.4233     9.2552    -0.8548 C.ar    
  37 C37            5.0932     8.8344    -0.8884 C.ar    
  38 C38            4.0795     9.7671    -0.9656 C.ar    
  39 C39            4.3794    11.1170    -1.0100 C.ar    
  40 C40            5.6960    11.5408    -0.9770 C.ar    
  41 C41            6.7188    10.6185    -0.8941 C.ar    
  42 H42            0.4397     2.0350     4.6081 H       
  43 H43            3.9900    -1.1683     1.2595 H       
  44 H44            6.6672     1.9085     2.5505 H       
  45 H45            4.8904     2.9624     3.8468 H       
  46 H46            6.5702    -1.2440     1.0807 H       
  47 H47            6.2524     2.3271     0.7132 H       
  48 H48            9.8182     2.7254    -1.6123 H       
  49 H49           10.2317     0.3102    -1.3951 H       
  50 H50            9.3481    -1.7062     0.7995 H       
  51 H51            7.7920    -2.0468     0.0052 H       
  52 H52            9.2708    -1.8759    -0.9707 H       
  53 H53            6.8677     4.3834    -0.6768 H       
  54 H54            9.2457     9.4380    -0.7541 H       
  55 H55           11.2834     8.7338     0.8741 H       
  56 H56           13.7205     8.4198     0.9769 H       
  57 H57           13.4603     5.2929    -1.9145 H       
  58 H58           11.0210     5.5849    -2.0283 H       
  59 H59           -1.0927     0.5437     4.0640 H       
  60 H60           -0.9291    -0.1282     2.4239 H       
  61 H61           -0.4796    -1.1119     3.8376 H       
  62 H62           15.4684     5.9197     0.3756 H       
  63 H63           15.5935     6.2984    -1.3592 H       
  64 H64           15.7021     7.6032    -0.1533 H       
  65 H65            4.8579     7.7809    -0.8545 H       
  66 H66            3.0497     9.4428    -0.9917 H       
  67 H67            3.5823    11.8431    -1.0711 H       
  68 H68            5.9235    12.5960    -1.0120 H       
  69 H69            7.7462    10.9505    -0.8684 H       
@<TRIPOS>BOND
   1    1    2 1
   2    1    6 2
   3    1   42 1
   4    2    3 am
   5    2   33 1
   6    3    4 1
   7    3   34 2
   8    4    5 ar
   9    4    7 ar
  10    5    6 1
  11    5   10 ar
  12    7    8 ar
  13    7   43 1
  14    8    9 ar
  15    8   11 1
  16    9   10 ar
  17    9   44 1
  18   10   45 1
  19   11   12 1
  20   11   46 1
  21   12   13 ar
  22   12   17 ar
  23   13   14 ar
  24   13   47 1
  25   14   15 ar
  26   14   19 1
  27   15   16 ar
  28   15   48 1
  29   16   17 ar
  30   16   49 1
  31   17   18 1
  32   18   50 1
  33   18   51 1
  34   18   52 1
  35   19   20 am
  36   19   53 1
  37   20   21 1
  38   20   22 2
  39   21   23 1
  40   21   26 2
  41   23   24 2
  42   24   25 1
  43   24   36 1
  44   25   26 1
  45   25   54 1
  46   26   27 1
  47   27   28 ar
  48   27   32 ar
  49   28   29 ar
  50   28   55 1
  51   29   30 ar
  52   29   56 1
  53   30   31 ar
  54   30   35 1
  55   31   32 ar
  56   31   57 1
  57   32   58 1
  58   33   59 1
  59   33   60 1
  60   33   61 1
  61   35   62 1
  62   35   63 1
  63   35   64 1
  64   36   37 ar
  65   36   41 ar
  66   37   38 ar
  67   37   65 1
  68   38   39 ar
  69   38   66 1
  70   39   40 ar
  71   39   67 1
  72   40   41 ar
  73   40   68 1
  74   41   69 1

#	End of record

