#	Name: ASD01811233
#	Creating user name:	WinNT
#	Creation time:	15. 06. 2019 19:26

#	Modifying user name:	WinNT
#	Modification time:	15. 06. 2019 19:26

#	Program:	/corina/corina34_cracker 3.40 0067  02.08.2006

@<TRIPOS>MOLECULE
ASD01811233
  48   50    0    0    0
SMALL
NO_CHARGES


@<TRIPOS>ATOM
   1 C1            -0.0096     1.4718     0.0892 C.2     
   2 C2             0.0061    -0.0048     0.0405 C.ar    
   3 C3             1.2149    -0.6874    -0.1186 C.ar    
   4 C4             1.2308    -2.0669    -0.1648 C.ar    
   5 C5             0.0541    -2.7815    -0.0543 C.ar    
   6 C6            -1.1607    -2.1122     0.1055 C.ar    
   7 C7            -1.1840    -0.7204     0.1587 C.ar    
   8 O8             1.0357     2.0905     0.0968 O.2     
   9 O9            -1.1833     2.1323     0.1196 O.3     
  10 C10            2.5037     0.0840    -0.2405 C.3     
  11 C11           -4.4114    -3.5558     0.8464 C.2     
  12 N12           -3.9799    -4.3754    -0.0741 N.2     
  13 C13           -2.7636    -3.9927    -0.4795 C.2     
  14 C14           -2.4199    -2.8796     0.2232 C.2     
  15 N15           -3.4744    -2.6080     1.0652 N.pl3   
  16 C16           -5.7425    -3.6488     1.5470 C.3     
  17 C17           -6.8651    -3.6744     0.5077 C.3     
  18 O18           -8.1272    -3.7625     1.1719 O.3     
  19 C19           -9.2489    -3.7930     0.2871 C.3     
  20 C20            0.0814    -4.2873    -0.1069 C.3     
  21 C21            0.6545    -4.8476    -1.4193 C.3     
  22 C22            1.3624    -5.9118    -0.5641 C.3     
  23 C23            1.3001    -4.9063     0.5978 C.3     
  24 C24           -1.1228     3.5822     0.1669 C.3     
  25 H25            2.1677    -2.5898    -0.2883 H       
  26 H26           -2.1206    -0.1980     0.2863 H       
  27 H27            2.8678     0.3427     0.7538 H       
  28 H28            3.2467    -0.5283    -0.7516 H       
  29 H29            2.3289     0.9956    -0.8119 H       
  30 H30           -2.1612    -4.4812    -1.2311 H       
  31 H31           -3.5336    -1.8738     1.6964 H       
  32 H32           -5.7771    -4.5616     2.1417 H       
  33 H33           -5.8709    -2.7851     2.1993 H       
  34 H34           -6.8305    -2.7615    -0.0870 H       
  35 H35           -6.7367    -4.5381    -0.1447 H       
  36 H36           -9.1699    -4.6592    -0.3699 H       
  37 H37          -10.1685    -3.8604     0.8683 H       
  38 H38           -9.2637    -2.8827    -0.3122 H       
  39 H39           -0.8677    -4.7382     0.1828 H       
  40 H40           -0.1034    -5.2574    -2.0869 H       
  41 H41            1.3396    -4.1656    -1.9229 H       
  42 H42            0.7642    -6.8078    -0.3987 H       
  43 H43            2.3769    -6.1340    -0.8952 H       
  44 H44            2.1617    -4.2403     0.6456 H       
  45 H45            1.0633    -5.3635     1.5586 H       
  46 H46           -0.6008     3.9531    -0.7152 H       
  47 H47           -2.1344     3.9876     0.1877 H       
  48 H48           -0.5878     3.8945     1.0637 H       
@<TRIPOS>BOND
   1    1    2 1
   2    1    8 2
   3    1    9 1
   4    2    3 ar
   5    2    7 ar
   6    3    4 ar
   7    3   10 1
   8    4    5 ar
   9    4   25 1
  10    5    6 ar
  11    5   20 1
  12    6    7 ar
  13    6   14 1
  14    7   26 1
  15    9   24 1
  16   10   27 1
  17   10   28 1
  18   10   29 1
  19   11   12 2
  20   11   15 1
  21   11   16 1
  22   12   13 1
  23   13   14 2
  24   13   30 1
  25   14   15 1
  26   15   31 1
  27   16   17 1
  28   16   32 1
  29   16   33 1
  30   17   18 1
  31   17   34 1
  32   17   35 1
  33   18   19 1
  34   19   36 1
  35   19   37 1
  36   19   38 1
  37   20   21 1
  38   20   23 1
  39   20   39 1
  40   21   22 1
  41   21   40 1
  42   21   41 1
  43   22   23 1
  44   22   42 1
  45   22   43 1
  46   23   44 1
  47   23   45 1
  48   24   46 1
  49   24   47 1
  50   24   48 1

#	End of record

