#	Name: ASD03180035
#	Creating user name:	WinNT
#	Creation time:	15. 06. 2019 20:33

#	Modifying user name:	WinNT
#	Modification time:	15. 06. 2019 20:33

#	Program:	/corina/corina34_cracker 3.40 0067  02.08.2006

@<TRIPOS>MOLECULE
ASD03180035
  54   56    0    0    0
SMALL
NO_CHARGES


@<TRIPOS>ATOM
   1 C1             7.3552     3.1093     2.0003 C.ar    
   2 C2             7.3475     4.4735     2.2306 C.ar    
   3 C3             6.2966     5.2464     1.7697 C.ar    
   4 C4             5.2551     4.6553     1.0795 C.ar    
   5 C5             5.2633     3.2922     0.8498 C.ar    
   6 C6             6.3131     2.5194     1.3101 C.ar    
   7 S7             3.9350     2.5393    -0.0296 S.o2    
   8 O8             2.7876     3.3419     0.2125 O.2     
   9 N9             4.2731     2.6818    -1.6445 N.am    
  10 O10            3.9903     1.1516     0.2710 O.2     
  11 C11            3.7223     3.8014    -2.4121 C.3     
  12 C12            5.1229     1.6882    -2.3054 C.3     
  13 C13            4.2574     0.6393    -2.9549 C.ar    
  14 C14            4.7339     4.9170    -2.4695 C.2     
  15 N15            4.4438     6.0565    -3.1281 N.am    
  16 C16            5.4225     7.0482    -3.2771 C.ar    
  17 O17            5.8091     4.7893    -1.9228 O.2     
  18 C18            3.9020     0.7632    -4.2850 C.ar    
  19 C19            3.1080    -0.1989    -4.8807 C.ar    
  20 C20            2.6699    -1.2851    -4.1465 C.ar    
  21 C21            3.0261    -1.4095    -2.8166 C.ar    
  22 C22            3.8236    -0.4496    -2.2220 C.ar    
  23 C23            6.7673     6.7114    -3.2263 C.ar    
  24 C24            7.7307     7.6912    -3.3734 C.ar    
  25 C25            7.3580     9.0080    -3.5713 C.ar    
  26 C26            6.0198     9.3512    -3.6231 C.ar    
  27 C27            5.0477     8.3740    -3.4822 C.ar    
  28 O28            3.7311     8.7091    -3.5390 O.3     
  29 C29            3.4212    10.0877    -3.7520 C.3     
  30 C30            9.1911     7.3237    -3.3175 C.3     
  31 Cl31           8.6557     5.2151     3.0980 Cl      
  32 H32            8.1774     2.5062     2.3560 H       
  33 H33            6.2899     6.3113     1.9494 H       
  34 H34            4.4346     5.2585     0.7200 H       
  35 H35            6.3190     1.4545     1.1303 H       
  36 H36            3.4903     3.4690    -3.4239 H       
  37 H37            2.8129     4.1600    -1.9300 H       
  38 H38            5.7315     2.1785    -3.0652 H       
  39 H39            5.7725     1.2173    -1.5676 H       
  40 H40            3.5576     6.1901    -3.4991 H       
  41 H41            4.2443     1.6118    -4.8586 H       
  42 H42            2.8298    -0.1018    -5.9197 H       
  43 H43            2.0490    -2.0364    -4.6117 H       
  44 H44            2.6835    -2.2579    -2.2429 H       
  45 H45            4.1049    -0.5486    -1.1840 H       
  46 H46            7.0613     5.6837    -3.0715 H       
  47 H47            8.1143     9.7704    -3.6854 H       
  48 H48            5.7321    10.3806    -3.7774 H       
  49 H49            2.3392    10.2173    -3.7762 H       
  50 H50            3.8405    10.6838    -2.9414 H       
  51 H51            3.8475    10.4136    -4.7007 H       
  52 H52            9.5437     7.0821    -4.3202 H       
  53 H53            9.7626     8.1645    -2.9242 H       
  54 H54            9.3235     6.4587    -2.6676 H       
@<TRIPOS>BOND
   1    1    2 ar
   2    1    6 ar
   3    1   32 1
   4    2    3 ar
   5    2   31 1
   6    3    4 ar
   7    3   33 1
   8    4    5 ar
   9    4   34 1
  10    5    6 ar
  11    5    7 1
  12    6   35 1
  13    7    8 2
  14    7    9 am
  15    7   10 2
  16    9   11 1
  17    9   12 1
  18   11   14 1
  19   11   36 1
  20   11   37 1
  21   12   13 1
  22   12   38 1
  23   12   39 1
  24   13   18 ar
  25   13   22 ar
  26   14   15 am
  27   14   17 2
  28   15   16 1
  29   15   40 1
  30   16   23 ar
  31   16   27 ar
  32   18   19 ar
  33   18   41 1
  34   19   20 ar
  35   19   42 1
  36   20   21 ar
  37   20   43 1
  38   21   22 ar
  39   21   44 1
  40   22   45 1
  41   23   24 ar
  42   23   46 1
  43   24   25 ar
  44   24   30 1
  45   25   26 ar
  46   25   47 1
  47   26   27 ar
  48   26   48 1
  49   27   28 1
  50   28   29 1
  51   29   49 1
  52   29   50 1
  53   29   51 1
  54   30   52 1
  55   30   53 1
  56   30   54 1

#	End of record

