#	Name: ASD09116125
#	Creating user name:	WinNT
#	Creation time:	15. 06. 2019 21:20

#	Modifying user name:	WinNT
#	Modification time:	15. 06. 2019 21:20

#	Program:	/corina/corina34_cracker 3.40 0067  02.08.2006

@<TRIPOS>MOLECULE
ASD09116125
  61   66    0    0    0
SMALL
NO_CHARGES


@<TRIPOS>ATOM
   1 N1            -0.0266     1.4808     0.1055 N.2     
   2 C2            -0.0141     0.0098     0.1916 C.3     
   3 C3             1.2224     1.8594     0.0815 C.2     
   4 N4             2.0841     0.8236     0.1409 N.2     
   5 C5             1.4645    -0.3258     0.2091 C.2     
   6 N6             1.6190     3.1792     0.0032 N.pl3   
   7 C7             2.9768     3.5092     0.0978 C.ar    
   8 C8             3.4714     4.6163    -0.5789 C.ar    
   9 C9             3.8280     2.7327     0.8729 C.ar    
  10 C10            5.1667     3.0590     0.9660 C.ar    
  11 C11            5.6609     4.1623     0.2859 C.ar    
  12 C12            4.8103     4.9412    -0.4847 C.ar    
  13 O13            6.9791     4.4832     0.3784 O.3     
  14 C14            7.4197     5.6321    -0.3481 C.3     
  15 C15            8.9197     5.8332    -0.1236 C.3     
  16 N16            9.6574     4.7018    -0.7012 N.3     
  17 C17           11.1072     4.9694    -0.7176 C.3     
  18 C18           11.7920     3.8261     0.0605 C.3     
  19 C19           10.7496     2.6795    -0.0136 C.3     
  20 C20            9.4160     3.4632     0.0693 C.3     
  21 N21            2.0276    -1.5619     0.2806 N.pl3   
  22 C22           -0.6795    -0.4541     1.4616 C.ar    
  23 N23           -0.4095     0.1718     2.5896 N.ar    
  24 N24           -1.5199    -1.4724     1.4092 N.ar    
  25 C25           -2.1145    -1.8981     2.5019 C.ar    
  26 C26           -1.8489    -1.2658     3.7124 C.ar    
  27 C27           -0.9731    -0.2047     3.7307 C.ar    
  28 C28           -3.1149    -3.0183     2.7841 C.3     
  29 C29           -4.4444    -2.2727     3.1242 C.3     
  30 C30           -4.1476    -1.5698     4.4705 C.3     
  31 C31           -2.6716    -1.9694     4.7890 C.3     
  32 C32           -2.6538    -3.4397     4.2283 C.3     
  33 H33           -0.5005    -0.4305    -0.6788 H       
  34 H34            0.9573     3.8782    -0.1172 H       
  35 H35            2.8093     5.2228    -1.1789 H       
  36 H36            3.4432     1.8741     1.4030 H       
  37 H37            5.8288     2.4551     1.5688 H       
  38 H38            5.1959     5.8001    -1.0140 H       
  39 H39            7.2279     5.4854    -1.4111 H       
  40 H40            6.8789     6.5119     0.0006 H       
  41 H41            9.2383     6.7581    -0.6044 H       
  42 H42            9.1224     5.8912     0.9458 H       
  43 H43           11.4694     4.9872    -1.7455 H       
  44 H44           11.3137     5.9236    -0.2328 H       
  45 H45           12.7227     3.5329    -0.4251 H       
  46 H46           11.9712     4.1177     1.0954 H       
  47 H47           10.8280     2.1410    -0.9581 H       
  48 H48           10.8561     1.9997     0.8317 H       
  49 H49            9.1796     3.7014     1.1063 H       
  50 H50            8.6084     2.8868    -0.3821 H       
  51 H51            2.9931    -1.6555     0.2844 H       
  52 H52            1.4638    -2.3497     0.3279 H       
  53 H53           -0.7458     0.3075     4.6540 H       
  54 H54           -3.1824    -3.8046     2.0322 H       
  55 H55           -4.6785    -1.5384     2.3534 H       
  56 H56           -5.2629    -2.9837     3.2369 H       
  57 H57           -4.2362    -0.4885     4.3647 H       
  58 H58           -4.8185    -1.9348     5.2482 H       
  59 H59           -2.3442    -1.8233     5.8184 H       
  60 H60           -3.3813    -4.0818     4.7250 H       
  61 H61           -1.6541    -3.8739     4.2343 H       
@<TRIPOS>BOND
   1    1    2 1
   2    1    3 2
   3    2   22 1
   4    2    5 1
   5    2   33 1
   6    3    4 1
   7    3    6 1
   8    4    5 2
   9    5   21 1
  10    6    7 1
  11    6   34 1
  12    7    8 ar
  13    7    9 ar
  14    8   12 ar
  15    8   35 1
  16    9   10 ar
  17    9   36 1
  18   10   11 ar
  19   10   37 1
  20   11   12 ar
  21   11   13 1
  22   12   38 1
  23   13   14 1
  24   14   15 1
  25   14   39 1
  26   14   40 1
  27   15   16 1
  28   15   41 1
  29   15   42 1
  30   16   17 1
  31   16   20 1
  32   17   18 1
  33   17   43 1
  34   17   44 1
  35   18   19 1
  36   18   45 1
  37   18   46 1
  38   19   20 1
  39   19   47 1
  40   19   48 1
  41   20   49 1
  42   20   50 1
  43   21   51 1
  44   21   52 1
  45   22   23 ar
  46   22   24 ar
  47   23   27 ar
  48   24   25 ar
  49   25   26 ar
  50   25   28 1
  51   26   27 ar
  52   26   31 1
  53   27   53 1
  54   28   29 1
  55   28   32 1
  56   28   54 1
  57   29   30 1
  58   29   55 1
  59   29   56 1
  60   30   31 1
  61   30   57 1
  62   30   58 1
  63   31   32 1
  64   31   59 1
  65   32   60 1
  66   32   61 1

#	End of record

