#	Name: ASD01152197
#	Creating user name:	WinNT
#	Creation time:	15. 06. 2019 19:05

#	Modifying user name:	WinNT
#	Modification time:	15. 06. 2019 19:05

#	Program:	/corina/corina34_cracker 3.40 0067  02.08.2006

@<TRIPOS>MOLECULE
ASD01152197
  38   38    0    0    0
SMALL
NO_CHARGES


@<TRIPOS>ATOM
   1 C1            -0.6476     1.1687    -0.4021 C.ar    
   2 C2            -1.2579    -0.0629    -0.2675 C.ar    
   3 C3            -0.6312    -1.2029    -0.7339 C.ar    
   4 C4             0.6158    -1.1140    -1.3396 C.ar    
   5 C5             1.2325     0.1211    -1.4768 C.ar    
   6 C6             0.6005     1.2650    -1.0078 C.ar    
   7 N7             1.2167     2.5094    -1.1440 N.pl3   
   8 N8             0.6287     3.5715    -0.7079 N.2     
   9 C9             1.2594     4.7278    -0.7256 C.2     
  10 C10            2.6933     4.7782    -1.0466 C.2     
  11 N11            3.3103     5.9678    -1.1903 N.am    
  12 O12            3.3227     3.7465    -1.1826 O.2     
  13 C13            4.5975     6.0159    -1.5867 C.2     
  14 O14            5.2137     7.2039    -1.7302 O.3     
  15 O15            5.2016     4.9869    -1.8145 O.2     
  16 N16            1.2495    -2.2693    -1.8105 N.am    
  17 C17            0.5400    -3.2053    -2.4715 C.2     
  18 O18           -0.6611    -3.0848    -2.5893 O.2     
  19 C19            1.2390    -4.4017    -3.0641 C.3     
  20 C20            0.5484     5.9357    -0.4321 C.1     
  21 N21           -0.0156     6.8939    -0.1993 N.1     
  22 C22            7.1265     8.6125    -2.2662 C.3     
  23 C23            6.6003     7.1797    -2.1602 C.3     
  24 H24           -1.1420     2.0582    -0.0406 H       
  25 H25           -2.2271    -0.1352     0.2036 H       
  26 H26           -1.1115    -2.1643    -0.6270 H       
  27 H27            2.2021     0.1927    -1.9471 H       
  28 H28            2.0873     2.5758    -1.5667 H       
  29 H29            2.8278     6.7895    -1.0084 H       
  30 H30            2.1995    -2.3965    -1.6612 H       
  31 H31            1.7380    -4.9601    -2.2721 H       
  32 H32            0.5076    -5.0432    -3.5556 H       
  33 H33            1.9769    -4.0671    -3.7932 H       
  34 H34            6.5306     9.1657    -2.9921 H       
  35 H35            7.0564     9.0982    -1.2929 H       
  36 H36            8.1675     8.5943    -2.5890 H       
  37 H37            7.1962     6.6265    -1.4343 H       
  38 H38            6.6704     6.6940    -3.1335 H       
@<TRIPOS>BOND
   1    1    2 ar
   2    1    6 ar
   3    1   24 1
   4    2    3 ar
   5    2   25 1
   6    3    4 ar
   7    3   26 1
   8    4    5 ar
   9    4   16 1
  10    5    6 ar
  11    5   27 1
  12    6    7 1
  13    7    8 1
  14    7   28 1
  15    8    9 2
  16    9   10 1
  17    9   20 1
  18   10   11 am
  19   10   12 2
  20   11   13 am
  21   11   29 1
  22   13   14 1
  23   13   15 2
  24   14   23 1
  25   16   17 am
  26   16   30 1
  27   17   18 2
  28   17   19 1
  29   19   31 1
  30   19   32 1
  31   19   33 1
  32   20   21 3
  33   22   23 1
  34   22   34 1
  35   22   35 1
  36   22   36 1
  37   23   37 1
  38   23   38 1

#	End of record

