#	Name: ASD03930217
#	Creating user name:	WinNT
#	Creation time:	15. 06. 2019 20:47

#	Modifying user name:	WinNT
#	Modification time:	15. 06. 2019 20:47

#	Program:	/corina/corina34_cracker 3.40 0067  02.08.2006

@<TRIPOS>MOLECULE
ASD03930217
  41   44    0    0    0
SMALL
NO_CHARGES


@<TRIPOS>ATOM
   1 S1            -0.0754     4.0336    -0.9995 S.o2    
   2 N2            -0.7568     2.5508    -1.3381 N.am    
   3 C3            -0.4952     1.9218    -2.6290 C.3     
   4 C4             0.9726     1.5822    -2.8390 C.3     
   5 O5             1.7789     2.7658    -2.8762 O.3     
   6 C6             2.3639     3.1177    -1.7032 C.ar    
   7 C7             1.6342     3.6846    -0.6673 C.ar    
   8 C8             3.7230     2.8924    -1.5140 C.ar    
   9 C9             4.3092     3.1910    -0.3001 C.ar    
  10 C10            3.5560     3.7162     0.7395 C.ar    
  11 C11            2.2010     3.9690     0.5470 C.ar    
  12 O12            4.1378     3.9821     1.9393 O.3     
  13 C13            3.3387     4.3935     2.9585 C.ar    
  14 C14            2.7478     3.4607     3.7948 C.ar    
  15 C15            1.9287     3.8875     4.8400 C.ar    
  16 C16            1.7099     5.2524     5.0362 C.ar    
  17 C17            2.3034     6.1731     4.1974 C.ar    
  18 C18            3.1195     5.7490     3.1648 C.ar    
  19 O19            1.4130     1.5632     5.6691 O.3     
  20 N20            0.7630     1.0497     6.5550 N.2     
  21 C21            0.1707     1.9595     7.2708 C.2     
  22 N22            0.4998     3.1562     6.7602 N.2     
  23 C23            1.2941     2.8981     5.7365 C.2     
  24 C24           -0.7241     1.7144     8.4584 C.3     
  25 O25           -0.1135     4.7868    -2.2038 O.2     
  26 O26           -0.6479     4.4783     0.2228 O.2     
  27 H27           -1.3212     2.1100    -0.6838 H       
  28 H28           -1.0807     1.0049    -2.6974 H       
  29 H29           -0.8153     2.5994    -3.4205 H       
  30 H30            1.3119     0.9444    -2.0229 H       
  31 H31            1.0836     1.0448    -3.7808 H       
  32 H32            4.3198     2.4839    -2.3161 H       
  33 H33            5.3650     3.0133    -0.1584 H       
  34 H34            1.6037     4.3846     1.3451 H       
  35 H35            2.9204     2.4062     3.6379 H       
  36 H36            1.0761     5.5873     5.8440 H       
  37 H37            2.1330     7.2286     4.3500 H       
  38 H38            3.5849     6.4744     2.5141 H       
  39 H39           -0.1239     1.6966     9.3680 H       
  40 H40           -1.4638     2.5121     8.5267 H       
  41 H41           -1.2319     0.7573     8.3393 H       
@<TRIPOS>BOND
   1    1    2 am
   2    1    7 1
   3    1   25 2
   4    1   26 2
   5    2    3 1
   6    2   27 1
   7    3    4 1
   8    3   28 1
   9    3   29 1
  10    4    5 1
  11    4   30 1
  12    4   31 1
  13    5    6 1
  14    6    7 ar
  15    6    8 ar
  16    7   11 ar
  17    8    9 ar
  18    8   32 1
  19    9   10 ar
  20    9   33 1
  21   10   11 ar
  22   10   12 1
  23   11   34 1
  24   12   13 1
  25   13   14 ar
  26   13   18 ar
  27   14   15 ar
  28   14   35 1
  29   15   16 ar
  30   15   23 1
  31   16   17 ar
  32   16   36 1
  33   17   18 ar
  34   17   37 1
  35   18   38 1
  36   19   20 1
  37   19   23 1
  38   20   21 2
  39   21   22 1
  40   21   24 1
  41   22   23 2
  42   24   39 1
  43   24   40 1
  44   24   41 1

#	End of record

