#	Name: ASD08150590
#	Creating user name:	WinNT
#	Creation time:	15. 06. 2019 21:16

#	Modifying user name:	WinNT
#	Modification time:	15. 06. 2019 21:16

#	Program:	/corina/corina34_cracker 3.40 0067  02.08.2006

@<TRIPOS>MOLECULE
ASD08150590
  66   71    0    0    0
SMALL
NO_CHARGES


@<TRIPOS>ATOM
   1 N1            -0.4556     0.6029    -2.8065 N.am    
   2 C2            -0.5909    -0.5790    -3.4387 C.2     
   3 C3             0.4366    -1.5430    -3.3985 C.2     
   4 C4             1.5836    -1.2910    -2.7176 C.2     
   5 C5             1.7295    -0.0484    -2.0517 C.ar    
   6 C6             2.8985     0.2638    -1.3318 C.ar    
   7 N7             3.0306     1.4111    -0.7188 N.ar    
   8 C8             2.0720     2.3495    -0.7380 C.ar    
   9 C9             0.8616     2.1213    -1.4380 C.ar    
  10 C10            0.6871     0.8895    -2.1116 C.ar    
  11 C11           -0.1314     3.1053    -1.4512 C.ar    
  12 C12            0.0801     4.2974    -0.7769 C.ar    
  13 C13            1.2809     4.5162    -0.0867 C.ar    
  14 C14            2.2560     3.5686    -0.0648 C.ar    
  15 O15           -1.6163    -0.8181    -4.0536 O.2     
  16 C16           -0.9676     5.3463    -0.7857 C.ar    
  17 C17           -1.4894     1.5467    -2.8660 C.ar    
  18 C18           -1.4666     2.5417    -3.8350 C.ar    
  19 C19           -2.4848     3.4713    -3.8938 C.ar    
  20 C20           -3.5331     3.4118    -2.9838 C.ar    
  21 C21           -3.5560     2.4165    -2.0152 C.ar    
  22 C22           -2.5398     1.4838    -1.9597 C.ar    
  23 N23           -4.5644     4.3537    -3.0429 N.3     
  24 C24           -5.8740     3.6950    -3.1467 C.3     
  25 C25           -4.3593     5.2901    -4.1568 C.3     
  26 C26           -5.4633     6.3499    -4.1387 C.3     
  27 N27           -6.7729     5.6912    -4.2425 N.3     
  28 C28           -6.9780     4.7549    -3.1286 C.3     
  29 N29           -2.1565     5.0950    -1.3278 N.ar    
  30 C30           -3.0878     6.0281    -1.3353 C.ar    
  31 C31           -2.8273     7.2778    -0.7762 C.ar    
  32 N32           -1.6414     7.5298    -0.2355 N.ar    
  33 C33           -0.7098     6.5941    -0.2212 C.ar    
  34 N34           -3.8094     8.2608    -0.7851 N.pl3   
  35 C35           -5.2134     7.8953    -0.5818 C.3     
  36 C36           -3.4408     9.6626    -0.9978 C.3     
  37 C37           -4.6930     2.3517    -1.0281 C.3     
  38 F38           -4.2529     1.7402     0.1507 F       
  39 F39           -5.1378     3.6472    -0.7434 F       
  40 F40           -5.7437     1.6076    -1.5753 F       
  41 H41            0.3109    -2.4854    -3.9109 H       
  42 H42            2.3734    -2.0268    -2.6834 H       
  43 H43            3.7007    -0.4578    -1.2847 H       
  44 H44           -1.0563     2.9379    -1.9832 H       
  45 H45            1.4334     5.4497     0.4346 H       
  46 H46            3.1744     3.7535     0.4725 H       
  47 H47           -0.6517     2.5879    -4.5423 H       
  48 H48           -2.4666     4.2453    -4.6468 H       
  49 H49           -2.5595     0.7077    -1.2090 H       
  50 H50           -5.9252     3.1325    -4.0789 H       
  51 H51           -6.0075     3.0164    -2.3042 H       
  52 H52           -3.3885     5.7743    -4.0508 H       
  53 H53           -4.3933     4.7456    -5.1005 H       
  54 H54           -5.4121     6.9125    -3.2065 H       
  55 H55           -5.3298     7.0285    -4.9812 H       
  56 H56           -7.5172     6.3711    -4.2851 H       
  57 H57           -7.9487     4.2706    -3.2346 H       
  58 H58           -6.9440     5.2993    -2.1849 H       
  59 H59           -4.0527     5.8241    -1.7753 H       
  60 H60            0.2549     6.7990     0.2190 H       
  61 H61           -5.4366     7.8896     0.4850 H       
  62 H62           -5.8540     8.6209    -1.0832 H       
  63 H63           -5.3944     6.9035    -0.9962 H       
  64 H64           -2.3614     9.7386    -1.1290 H       
  65 H65           -3.9426    10.0390    -1.8892 H       
  66 H66           -3.7441    10.2532    -0.1333 H       
@<TRIPOS>BOND
   1    1    2 am
   2    1   10 1
   3    1   17 1
   4    2    3 1
   5    2   15 2
   6    3    4 2
   7    3   41 1
   8    4    5 1
   9    4   42 1
  10    5    6 ar
  11    5   10 ar
  12    6    7 ar
  13    6   43 1
  14    7    8 ar
  15    8    9 ar
  16    8   14 ar
  17    9   10 ar
  18    9   11 ar
  19   11   12 ar
  20   11   44 1
  21   12   13 ar
  22   12   16 1
  23   13   14 ar
  24   13   45 1
  25   14   46 1
  26   16   29 ar
  27   16   33 ar
  28   17   18 ar
  29   17   22 ar
  30   18   19 ar
  31   18   47 1
  32   19   20 ar
  33   19   48 1
  34   20   21 ar
  35   20   23 1
  36   21   22 ar
  37   21   37 1
  38   22   49 1
  39   23   24 1
  40   23   25 1
  41   24   28 1
  42   24   50 1
  43   24   51 1
  44   25   26 1
  45   25   52 1
  46   25   53 1
  47   26   27 1
  48   26   54 1
  49   26   55 1
  50   27   28 1
  51   27   56 1
  52   28   57 1
  53   28   58 1
  54   29   30 ar
  55   30   31 ar
  56   30   59 1
  57   31   32 ar
  58   31   34 1
  59   32   33 ar
  60   33   60 1
  61   34   35 1
  62   34   36 1
  63   35   61 1
  64   35   62 1
  65   35   63 1
  66   36   64 1
  67   36   65 1
  68   36   66 1
  69   37   38 1
  70   37   39 1
  71   37   40 1

#	End of record

