#	Name: ASD04590384
#	Creating user name:	WinNT
#	Creation time:	15. 06. 2019 20:50

#	Modifying user name:	WinNT
#	Modification time:	15. 06. 2019 20:50

#	Program:	/corina/corina34_cracker 3.40 0067  02.08.2006

@<TRIPOS>MOLECULE
ASD04590384
  43   47    0    0    0
SMALL
NO_CHARGES


@<TRIPOS>ATOM
   1 C1            -0.0167     1.3834     0.0096 C.ar    
   2 C2             0.0021    -0.0041     0.0020 C.ar    
   3 C3             2.3948     0.0191    -0.0207 C.ar    
   4 C4             2.3756     1.4249    -0.0129 C.ar    
   5 C5             1.1624     2.0987     0.0022 C.ar    
   6 N6             3.6952    -0.3637    -0.0355 N.2     
   7 C7             4.4665     0.6967    -0.0375 C.2     
   8 N8             3.6970     1.8290    -0.0238 N.pl3   
   9 C9             5.9437     0.6731    -0.0522 C.2     
  10 C10            6.7565    -0.4840    -0.0669 C.2     
  11 C11            8.0504    -0.0800    -0.0781 C.2     
  12 N12            8.0626     1.2790    -0.0709 N.pl3   
  13 N13            6.7358     1.7273    -0.0597 N.2     
  14 N14            6.3043    -1.8133    -0.0690 N.am    
  15 C15            7.1923    -2.8271    -0.0837 C.2     
  16 O16            8.3861    -2.5904    -0.0953 O.2     
  17 C17            6.7199    -4.2159    -0.0859 C.2     
  18 C18            7.5092    -5.3274    -0.1001 C.2     
  19 C19            1.1863    -0.6848    -0.0129 C.ar    
  20 C20            6.6395    -6.4413    -0.0967 C.2     
  21 C21            5.3692    -5.9485    -0.0805 C.2     
  22 O22            5.4304    -4.6113    -0.0683 O.3     
  23 C23            7.0339    -7.8726    -0.1083 C.ar    
  24 C24            6.0579    -8.8667    -0.1031 C.ar    
  25 C25            8.3811    -8.2263    -0.1304 C.ar    
  26 C26            8.7422    -9.5584    -0.1416 C.ar    
  27 C27            7.7692   -10.5414    -0.1310 C.ar    
  28 C28            6.4300   -10.1958    -0.1145 C.ar    
  29 H29           -0.9614     1.9069     0.0169 H       
  30 H30           -0.9290    -0.5513     0.0083 H       
  31 H31            1.1417     3.1785     0.0079 H       
  32 H32            4.0192     2.7439    -0.0226 H       
  33 H33            8.9175    -0.7237    -0.0903 H       
  34 H34            8.8531     1.8410    -0.0761 H       
  35 H35            5.3529    -2.0020    -0.0598 H       
  36 H36            8.5888    -5.3518    -0.1123 H       
  37 H37            1.1893    -1.7648    -0.0184 H       
  38 H38            4.4645    -6.5382    -0.0739 H       
  39 H39            5.0120    -8.5978    -0.0898 H       
  40 H40            9.1416    -7.4595    -0.1390 H       
  41 H41            9.7864    -9.8337    -0.1591 H       
  42 H42            8.0561   -11.5826    -0.1399 H       
  43 H43            5.6743   -10.9672    -0.1063 H       
@<TRIPOS>BOND
   1    1    2 ar
   2    1    5 ar
   3    1   29 1
   4    2   19 ar
   5    2   30 1
   6    3    4 ar
   7    3    6 1
   8    3   19 ar
   9    4    5 ar
  10    4    8 1
  11    5   31 1
  12    6    7 2
  13    7    8 1
  14    7    9 1
  15    8   32 1
  16    9   10 1
  17    9   13 2
  18   10   11 2
  19   10   14 1
  20   11   12 1
  21   11   33 1
  22   12   13 1
  23   12   34 1
  24   14   15 am
  25   14   35 1
  26   15   16 2
  27   15   17 1
  28   17   18 2
  29   17   22 1
  30   18   20 1
  31   18   36 1
  32   19   37 1
  33   20   21 2
  34   20   23 1
  35   21   22 1
  36   21   38 1
  37   23   24 ar
  38   23   25 ar
  39   24   28 ar
  40   24   39 1
  41   25   26 ar
  42   25   40 1
  43   26   27 ar
  44   26   41 1
  45   27   28 ar
  46   27   42 1
  47   28   43 1

#	End of record

