#	Name: ASD01030019
#	Creating user name:	WinNT
#	Creation time:	15. 06. 2019 18:58

#	Modifying user name:	WinNT
#	Modification time:	15. 06. 2019 18:58

#	Program:	/corina/corina34_cracker 3.40 0067  02.08.2006

@<TRIPOS>MOLECULE
ASD01030019
  29   29    0    0    0
SMALL
NO_CHARGES


@<TRIPOS>ATOM
   1 C1            -0.0226     1.8187     0.0120 C.3     
   2 P2             0.0021    -0.0041     0.0020 P.3     
   3 O3             0.7808    -0.5374     1.3064 O.3     
   4 O4            -1.5084    -0.5613     0.0134 O.3     
   5 O5             0.6948    -0.4814    -1.2156 O.2     
   6 C6             1.0602    -1.9201     1.5349 C.3     
   7 C7             2.5277    -2.3317     1.6678 C.3     
   8 C8             1.6244    -2.3101     2.9025 C.3     
   9 C9             1.4127     2.3483     0.0012 C.3     
  10 C10            2.1527     1.8415     1.2407 C.3     
  11 C11           -0.7626     2.3256    -1.2275 C.3     
  12 C12           -2.1980     1.7960    -1.2166 C.3     
  13 H13           -0.5328     2.1703     0.9088 H       
  14 H14           -2.0229    -0.2872     0.7849 H       
  15 H15            0.3822    -2.6230     1.0507 H       
  16 H16            2.8152    -3.3055     1.2714 H       
  17 H17            3.2801    -1.5478     1.5810 H       
  18 H18            1.7825    -1.5121     3.6279 H       
  19 H19            1.3176    -3.2698     3.3184 H       
  20 H20            1.9229     1.9968    -0.8956 H       
  21 H21            1.3980     3.4382     0.0072 H       
  22 H22            2.1675     0.7516     1.2347 H       
  23 H23            3.1753     2.2188     1.2330 H       
  24 H24            1.6425     2.1930     2.1375 H       
  25 H25           -0.7774     3.4155    -1.2215 H       
  26 H26           -0.2524     1.9741    -2.1243 H       
  27 H27           -2.1832     0.7061    -1.2226 H       
  28 H28           -2.7082     2.1475    -0.3198 H       
  29 H29           -2.7252     2.1571    -2.0997 H       
@<TRIPOS>BOND
   1    1    2 1
   2    1    9 1
   3    1   11 1
   4    1   13 1
   5    2    3 1
   6    2    4 1
   7    2    5 2
   8    3    6 1
   9    4   14 1
  10    6    7 1
  11    6    8 1
  12    6   15 1
  13    7    8 1
  14    7   16 1
  15    7   17 1
  16    8   18 1
  17    8   19 1
  18    9   10 1
  19    9   20 1
  20    9   21 1
  21   10   22 1
  22   10   23 1
  23   10   24 1
  24   11   12 1
  25   11   25 1
  26   11   26 1
  27   12   27 1
  28   12   28 1
  29   12   29 1

#	End of record

