#	Name: ASD01900864
#	Creating user name:	WinNT
#	Creation time:	15. 06. 2019 19:52

#	Modifying user name:	WinNT
#	Modification time:	15. 06. 2019 19:52

#	Program:	/corina/corina34_cracker 3.40 0067  02.08.2006

@<TRIPOS>MOLECULE
ASD01900864
  25   27    0    0    0
SMALL
NO_CHARGES


@<TRIPOS>ATOM
   1 C1            -0.0607     1.3148    -0.3365 C.ar    
   2 C2            -0.0220    -0.0615    -0.1545 C.ar    
   3 N3             1.1177    -0.7127    -0.1035 N.ar    
   4 C4             2.2837    -0.0823    -0.2239 C.ar    
   5 C5             2.3201     1.3128    -0.4107 C.ar    
   6 C6             1.1196     2.0198    -0.4672 C.ar    
   7 C7             3.6794    -0.5265    -0.2092 C.2     
   8 N8             4.4343     0.5272    -0.3735 N.2     
   9 N9             3.6393     1.6710    -0.5004 N.pl3   
  10 N10            4.1242    -1.8423    -0.0479 N.pl3   
  11 C11            5.4852    -2.1402    -0.1688 C.ar    
  12 C12            6.0277    -3.2326     0.4934 C.ar    
  13 N13            7.3106    -3.5190     0.3829 N.ar    
  14 C14            8.1253    -2.7876    -0.3539 C.ar    
  15 C15            7.6569    -1.6791    -1.0457 C.ar    
  16 C16            6.3139    -1.3476    -0.9606 C.ar    
  17 F17            8.4985    -0.9360    -1.7972 F       
  18 F18            9.4318    -3.1216    -0.4355 F       
  19 H19           -1.0087     1.8302    -0.3800 H       
  20 H20           -0.9481    -0.6077    -0.0525 H       
  21 H21            1.1129     3.0903    -0.6099 H       
  22 H22            3.9693     2.5737    -0.6313 H       
  23 H23            3.4887    -2.5485     0.1480 H       
  24 H24            5.3925    -3.8549     1.1063 H       
  25 H25            5.9210    -0.4910    -1.4882 H       
@<TRIPOS>BOND
   1    1    2 ar
   2    1    6 ar
   3    1   19 1
   4    2    3 ar
   5    2   20 1
   6    3    4 ar
   7    4    5 ar
   8    4    7 1
   9    5    6 ar
  10    5    9 1
  11    6   21 1
  12    7    8 2
  13    7   10 1
  14    8    9 1
  15    9   22 1
  16   10   11 1
  17   10   23 1
  18   11   12 ar
  19   11   16 ar
  20   12   13 ar
  21   12   24 1
  22   13   14 ar
  23   14   15 ar
  24   14   18 1
  25   15   16 ar
  26   15   17 1
  27   16   25 1

#	End of record

