#	Name: ASD07300951
#	Creating user name:	WinNT
#	Creation time:	15. 06. 2019 21:10

#	Modifying user name:	WinNT
#	Modification time:	15. 06. 2019 21:10

#	Program:	/corina/corina34_cracker 3.40 0067  02.08.2006

@<TRIPOS>MOLECULE
ASD07300951
  48   52    0    0    0
SMALL
NO_CHARGES


@<TRIPOS>ATOM
   1 N1             0.5044     1.7734    -0.5599 N.am    
   2 C2             0.3763     0.4318    -0.4017 C.2     
   3 N3             1.3947    -0.3744    -0.3285 N.2     
   4 C4             2.6580     0.0709    -0.4058 C.2     
   5 C5             2.8905     1.4458    -0.5705 C.2     
   6 C6             1.7324     2.3357    -0.6501 C.2     
   7 N7             3.8801    -0.5266    -0.3610 N.pl3   
   8 N8             4.8592     0.4657    -0.4962 N.2     
   9 C9             4.2850     1.6309    -0.6202 C.2     
  10 O10            1.8680     3.5380    -0.7931 O.2     
  11 C11            4.1177    -1.8984    -0.2055 C.ar    
  12 C12            3.4177    -2.8252    -0.9662 C.ar    
  13 N13            3.6382    -4.1168    -0.8224 N.ar    
  14 C14            4.5227    -4.5790     0.0394 C.ar    
  15 C15            5.2589    -3.7181     0.8325 C.ar    
  16 C16            5.0638    -2.3523     0.7104 C.ar    
  17 C17           -1.0101    -0.1512    -0.3058 C.3     
  18 C18           -1.0888    -1.6265    -0.7327 C.3     
  19 C19           -2.0578    -1.8335     0.4433 C.3     
  20 C20           -1.3837    -0.6225     1.1095 C.3     
  21 C21           -1.7258    -1.8311    -2.0830 C.2     
  22 N22           -1.1479    -2.3823    -3.0964 N.2     
  23 C23           -1.8504    -2.4840    -4.2067 C.2     
  24 C24           -3.0899    -1.9912    -4.1254 C.2     
  25 S25           -3.3215    -1.3729    -2.4918 S.3     
  26 C26           -4.1110    -1.9724    -5.2336 C.3     
  27 C27           -1.3008    -3.1048    -5.4651 C.3     
  28 C28            5.8466    -1.3818     1.5568 C.3     
  29 H29           -0.2873     2.3313    -0.6126 H       
  30 H30            4.7931     2.5762    -0.7410 H       
  31 H31            2.6850    -2.4845    -1.6827 H       
  32 H32            4.6741    -5.6447     0.1273 H       
  33 H33            5.9809    -4.1060     1.5358 H       
  34 H34           -1.7675     0.4791    -0.7717 H       
  35 H35           -0.1469    -2.1639    -0.6221 H       
  36 H36           -3.1026    -1.6633     0.1833 H       
  37 H37           -1.9009    -2.7699     0.9788 H       
  38 H38           -0.5224    -0.8854     1.7237 H       
  39 H39           -2.0825     0.0401     1.6201 H       
  40 H40           -4.7028    -2.8871    -5.1979 H       
  41 H41           -4.7665    -1.1105    -5.1091 H       
  42 H42           -3.6023    -1.9061    -6.1953 H       
  43 H43           -1.5140    -4.1738    -5.4660 H       
  44 H44           -1.7682    -2.6404    -6.3334 H       
  45 H45           -0.2227    -2.9493    -5.5061 H       
  46 H46            6.7168    -1.0341     1.0002 H       
  47 H47            5.2150    -0.5310     1.8124 H       
  48 H48            6.1742    -1.8785     2.4701 H       
@<TRIPOS>BOND
   1    1    2 1
   2    1    6 am
   3    1   29 1
   4    2    3 2
   5    2   17 1
   6    3    4 1
   7    4    5 2
   8    4    7 1
   9    5    6 1
  10    5    9 1
  11    6   10 2
  12    7    8 1
  13    7   11 1
  14    8    9 2
  15    9   30 1
  16   11   12 ar
  17   11   16 ar
  18   12   13 ar
  19   12   31 1
  20   13   14 ar
  21   14   15 ar
  22   14   32 1
  23   15   16 ar
  24   15   33 1
  25   16   28 1
  26   17   18 1
  27   17   20 1
  28   17   34 1
  29   18   19 1
  30   18   21 1
  31   18   35 1
  32   19   20 1
  33   19   36 1
  34   19   37 1
  35   20   38 1
  36   20   39 1
  37   21   22 2
  38   21   25 1
  39   22   23 1
  40   23   24 2
  41   23   27 1
  42   24   25 1
  43   24   26 1
  44   26   40 1
  45   26   41 1
  46   26   42 1
  47   27   43 1
  48   27   44 1
  49   27   45 1
  50   28   46 1
  51   28   47 1
  52   28   48 1

#	End of record

