#	Name: ASD01440081
#	Creating user name:	WinNT
#	Creation time:	15. 06. 2019 19:21

#	Modifying user name:	WinNT
#	Modification time:	15. 06. 2019 19:21

#	Program:	/corina/corina34_cracker 3.40 0067  02.08.2006

@<TRIPOS>MOLECULE
ASD01440081
  41   43    0    0    0
SMALL
NO_CHARGES


@<TRIPOS>ATOM
   1 C1             0.5764     0.4455    -0.0250 C.ar    
   2 C2             0.6421    -0.9258     0.0762 C.ar    
   3 C3             1.8756    -1.5590     0.1789 C.ar    
   4 C4             3.0477    -0.8110     0.1798 C.ar    
   5 C5             2.9912     0.5607     0.0786 C.ar    
   6 C6             1.7527     1.2017    -0.0249 C.ar    
   7 C7             1.6873     2.6713    -0.1336 C.2     
   8 O8             0.6179     3.2205    -0.3169 O.2     
   9 C9             2.9201     3.4755    -0.0198 C.ar    
  10 O10            1.9358    -2.9110     0.2789 O.3     
  11 C11            3.2352    -3.4967     0.3812 C.3     
  12 C12            3.1044    -4.9946     0.4828 C.2     
  13 N13            4.2075    -5.7617     0.5891 N.am    
  14 O14            2.0065    -5.5098     0.4690 O.2     
  15 C15            3.5016     4.0350    -1.1607 C.ar    
  16 C16            4.6525     4.7846    -1.0473 C.ar    
  17 C17            5.2347     4.9849     0.1932 C.ar    
  18 C18            4.6677     4.4355     1.3278 C.ar    
  19 C19            3.5092     3.6864     1.2317 C.ar    
  20 F20            2.9518     3.1546     2.3415 F       
  21 C21            4.0838    -7.1407     0.7930 C.ar    
  22 C22            5.0836    -8.0078     0.3716 C.ar    
  23 N23            4.9705    -9.3071     0.5614 N.ar    
  24 C24            3.9159    -9.8337     1.1531 C.ar    
  25 C25            2.8797    -9.0354     1.6000 C.ar    
  26 C26            2.9593    -7.6631     1.4264 C.ar    
  27 H27           -0.3820     0.9363    -0.1088 H       
  28 H28           -0.2659    -1.5105     0.0762 H       
  29 H29            4.0037    -1.3069     0.2604 H       
  30 H30            3.9021     1.1410     0.0797 H       
  31 H31            3.8191    -3.2422    -0.5033 H       
  32 H32            3.7370    -3.1146     1.2702 H       
  33 H33            5.0871    -5.3579     0.5242 H       
  34 H34            3.0502     3.8799    -2.1295 H       
  35 H35            5.1021     5.2171    -1.9289 H       
  36 H36            6.1368     5.5731     0.2745 H       
  37 H37            5.1278     4.5954     2.2917 H       
  38 H38            5.9624    -7.6135    -0.1169 H       
  39 H39            3.8610   -10.9036     1.2899 H       
  40 H40            2.0201    -9.4759     2.0830 H       
  41 H41            2.1667    -7.0150     1.7701 H       
@<TRIPOS>BOND
   1    1    2 ar
   2    1    6 ar
   3    1   27 1
   4    2    3 ar
   5    2   28 1
   6    3    4 ar
   7    3   10 1
   8    4    5 ar
   9    4   29 1
  10    5    6 ar
  11    5   30 1
  12    6    7 1
  13    7    8 2
  14    7    9 1
  15    9   15 ar
  16    9   19 ar
  17   10   11 1
  18   11   12 1
  19   11   31 1
  20   11   32 1
  21   12   13 am
  22   12   14 2
  23   13   21 1
  24   13   33 1
  25   15   16 ar
  26   15   34 1
  27   16   17 ar
  28   16   35 1
  29   17   18 ar
  30   17   36 1
  31   18   19 ar
  32   18   37 1
  33   19   20 1
  34   21   22 ar
  35   21   26 ar
  36   22   23 ar
  37   22   38 1
  38   23   24 ar
  39   24   25 ar
  40   24   39 1
  41   25   26 ar
  42   25   40 1
  43   26   41 1

#	End of record

