#	Name: ASD06610064
#	Creating user name:	WinNT
#	Creation time:	15. 06. 2019 21:07

#	Modifying user name:	WinNT
#	Modification time:	15. 06. 2019 21:07

#	Program:	/corina/corina34_cracker 3.40 0067  02.08.2006

@<TRIPOS>MOLECULE
ASD06610064
 271  271    0    0    0
SMALL
NO_CHARGES


@<TRIPOS>ATOM
   1 C1            -1.5135     3.5977    10.5713 C.2     
   2 O2            -1.2805     2.5080    10.0926 O.2     
   3 N3             0.8904     3.9505    10.6123 N.3     
   4 C4            -0.4141     4.6223    10.6832 C.3     
   5 C5            -0.5338     5.6263     9.5349 C.3     
   6 C6             0.5035     6.7360     9.7175 C.3     
   7 C7             0.3839     7.7400     8.5692 C.3     
   8 N8             1.3771     8.8026     8.7441 N.pl3   
   9 C9             1.4589     9.8243     7.8284 C.2     
  10 N10            0.7320     9.7906     6.7489 N.2     
  11 N11            2.3126    10.8870     8.0535 N.am    
  12 C12           -4.1946     2.6003     9.5153 C.2     
  13 O13           -3.4923     3.0249     8.6223 O.2     
  14 N14           -2.7571     3.8944    10.9980 N.am    
  15 C15           -3.9190     2.9953    10.9432 C.3     
  16 C16           -5.1249     3.7696    11.5157 C.3     
  17 C17           -4.7024     5.2519    11.3376 C.3     
  18 C18           -3.1760     5.1719    11.6028 C.3     
  19 C19           -6.9422     1.0182     7.6958 C.2     
  20 O20           -7.6558     0.9625     8.6749 O.2     
  21 N21           -5.2216     1.7753     9.2305 N.am    
  22 C22           -5.4895     1.3914     7.8423 C.3     
  23 C23           -4.6149     0.1936     7.4665 C.3     
  24 C24           -3.1409     0.5991     7.5285 C.3     
  25 C25           -4.8703    -0.9522     8.4477 C.3     
  26 C26           -8.9732    -0.5134     5.0704 C.2     
  27 O27           -8.0152    -0.6701     4.3433 O.2     
  28 N28           -7.4485     0.7463     6.4766 N.am    
  29 C29           -8.8302     0.2776     6.3452 C.3     
  30 C30           -9.7754     1.4802     6.3079 C.3     
  31 C31          -10.6024    -0.6959     2.3771 C.2     
  32 O32          -10.6500     0.4819     2.6628 O.2     
  33 N33          -10.1656    -1.0466     4.7383 N.am    
  34 C34          -10.3329    -1.7208     3.4485 C.3     
  35 C35          -11.5104    -2.6943     3.5308 C.3     
  36 C36          -11.1747    -3.8091     4.4876 C.2     
  37 O37          -10.0631    -3.8824     4.9672 O.2     
  38 N38          -12.1097    -4.7245     4.8105 N.am    
  39 C39          -11.8065    -0.7367    -1.0742 C.2     
  40 O40          -12.0965    -1.9130    -1.0180 O.2     
  41 N41          -10.7904    -1.0879     1.1014 N.am    
  42 C42          -11.0524    -0.0915     0.0599 C.3     
  43 C43           -9.7249     0.4632    -0.4606 C.3     
  44 C44          -12.6396     0.1343    -4.5253 C.2     
  45 O45          -11.9186     1.1094    -4.5122 O.2     
  46 N46          -12.1586    -0.0065    -2.1509 N.am    
  47 C47          -12.8916    -0.6337    -3.2534 C.3     
  48 C48          -14.3893    -0.6246    -2.9404 C.3     
  49 C49          -14.6606    -1.5068    -1.7202 C.3     
  50 C50          -16.1583    -1.4978    -1.4073 C.3     
  51 N51          -16.4181    -2.3425    -0.2389 N.pl3   
  52 C52          -17.7015    -2.4887     0.2319 C.2     
  53 N53          -18.6871    -1.8757    -0.3612 N.2     
  54 N54          -17.9454    -3.2815     1.3283 N.pl3   
  55 C55          -14.0513     0.3123    -7.8820 C.2     
  56 O56          -14.9311    -0.4965    -7.6754 O.2     
  57 N57          -13.2154    -0.2626    -5.6775 N.am    
  58 C58          -12.8851     0.4159    -6.9331 C.3     
  59 C59          -11.6562    -0.2442    -7.5616 C.3     
  60 C60          -11.2085     0.5665    -8.7795 C.3     
  61 C61          -10.6545     1.9160    -8.3182 C.3     
  62 C62          -10.1198    -0.2017    -9.5314 C.3     
  63 C63          -14.9395     1.5673   -11.1985 C.2     
  64 O64          -13.7934     1.8733   -11.4509 O.2     
  65 N65          -14.1166     1.1185    -8.9601 N.am    
  66 C66          -15.3087     1.1080    -9.8115 C.3     
  67 C67          -16.3621     2.0504    -9.2257 C.3     
  68 C68          -16.8280     1.5151    -7.8702 C.3     
  69 C69          -17.8814     2.4574    -7.2844 C.3     
  70 N70          -18.3275     1.9449    -5.9865 N.pl3   
  71 C71          -19.2781     2.6295    -5.2670 C.2     
  72 N72          -19.7825     3.7346    -5.7395 N.2     
  73 N73          -19.6968     2.1484    -4.0490 N.pl3   
  74 C74          -16.7410     2.6568   -14.1869 C.2     
  75 O75          -17.8034     2.6885   -13.6029 O.2     
  76 N76          -15.8830     1.6380   -12.1583 N.am    
  77 C77          -15.5241     2.0846   -13.5067 C.3     
  78 C78          -14.9997     0.8959   -14.3148 C.3     
  79 C79          -13.6947     0.3932   -13.6942 C.3     
  80 C80          -13.2358    -0.8702   -14.4251 C.3     
  81 C81          -12.6198     1.4746   -13.8210 C.3     
  82 C82          -17.6700     3.5800   -17.5998 C.2     
  83 O83          -16.6655     3.0858   -18.0665 O.2     
  84 N84          -16.6486     3.1333   -15.4442 N.am    
  85 C85          -17.8316     3.6896   -16.1055 C.3     
  86 C86          -17.9890     5.1608   -15.7161 C.3     
  87 C87          -18.2774     5.2636   -14.2171 C.3     
  88 C88          -18.4348     6.7348   -13.8277 C.3     
  89 N89          -18.7109     6.8332   -12.3923 N.pl3   
  90 C90          -18.8911     8.0655   -11.8099 C.2     
  91 N91          -18.8162     9.1462   -12.5347 N.2     
  92 N92          -19.1502     8.1578   -10.4628 N.pl3   
  93 C93          -19.3216     4.9805   -20.5449 C.2     
  94 O94          -20.1370     5.6091   -19.9038 O.2     
  95 N95          -18.6416     4.0310   -18.4176 N.am    
  96 C96          -18.4845     3.9245   -19.8703 C.3     
  97 C97          -18.9413     2.5393   -20.3324 C.3     
  98 C98          -18.0376     1.4713   -19.7129 C.3     
  99 C99          -20.3865     2.3045   -19.8886 C.3     
 100 C100         -20.1110     5.8412   -24.0089 C.2     
 101 O101         -19.4771     4.9089   -24.4435 O.2     
 102 N102         -19.1643     5.2263   -21.8607 N.am    
 103 C103         -20.0517     6.1735   -22.5401 C.3     
 104 C104         -19.5145     7.5947   -22.3600 C.3     
 105 O105         -18.2543     7.7152   -23.0228 O.3     
 106 O106         -20.8680     6.5810   -24.8343 O.3     
 107 C107           3.0053    10.9622     9.2071 C.2     
 108 O108           2.9366    10.0610    10.0154 O.2     
 109 C109          14.6798    19.5698    21.0733 C.3     
 110 C110          13.8067    18.3472    20.7835 C.3     
 111 C111          13.1349    18.5122    19.4189 C.3     
 112 C112          12.2618    17.2896    19.1291 C.3     
 113 C113          11.5899    17.4545    17.7645 C.3     
 114 C114          10.7169    16.2320    17.4747 C.3     
 115 C115          10.0450    16.3969    16.1101 C.3     
 116 C116           9.1719    15.1743    15.8204 C.3     
 117 C117           8.5001    15.3393    14.4557 C.3     
 118 C118           7.6270    14.1167    14.1660 C.3     
 119 C119           6.9551    14.2817    12.8013 C.3     
 120 C120           6.0821    13.0591    12.5116 C.3     
 121 C121           5.4102    13.2241    11.1469 C.3     
 122 C122           4.5371    12.0015    10.8572 C.3     
 123 C123           3.8652    12.1664     9.4925 C.3     
 124 H124           1.0202     3.3292    11.3966 H       
 125 H125           0.9958     3.4568     9.7386 H       
 126 H126          -0.5015     5.1466    11.6348 H       
 127 H127          -0.3581     5.1171     8.5872 H       
 128 H128          -1.5337     6.0601     9.5343 H       
 129 H129           0.3278     7.2452    10.6651 H       
 130 H130           1.5035     6.3022     9.7181 H       
 131 H131           0.5595     7.2308     7.6216 H       
 132 H132          -0.6161     8.1739     8.5686 H       
 133 H133           1.9770     8.7852     9.5062 H       
 134 H134           0.7347    10.5446     6.1386 H       
 135 H135           2.4134    11.5789     7.3812 H       
 136 H136          -3.7280     2.1057    11.5434 H       
 137 H137          -6.0278     3.5547    10.9441 H       
 138 H138          -5.2694     3.5338    12.5700 H       
 139 H139          -4.9088     5.5980    10.3249 H       
 140 H140          -5.1922     5.8890    12.0740 H       
 141 H141          -2.9743     5.1687    12.6740 H       
 142 H142          -2.6637     6.0053    11.1220 H       
 143 H143          -5.7833     1.4357     9.9446 H       
 144 H144          -5.2613     2.2289     7.1832 H       
 145 H145          -4.8599    -0.1323     6.4557 H       
 146 H146          -2.8959     0.9250     8.5393 H       
 147 H147          -2.5177    -0.2542     7.2608 H       
 148 H148          -2.9589     1.4154     6.8294 H       
 149 H149          -4.7126    -0.5996     9.4670 H       
 150 H150          -5.8970    -1.3017     8.3389 H       
 151 H151          -4.1832    -1.7716     8.2363 H       
 152 H152          -6.8979     0.8610     5.6863 H       
 153 H153          -9.0815    -0.3558     7.1959 H       
 154 H154          -9.5240     2.1136     5.4572 H       
 155 H155         -10.8034     1.1314     6.2101 H       
 156 H156          -9.6719     2.0523     7.2299 H       
 157 H157         -10.9131    -0.9839     5.3534 H       
 158 H158          -9.4235    -2.2703     3.2052 H       
 159 H159         -12.3951    -2.1653     3.8853 H       
 160 H160         -11.7075    -3.1104     2.5428 H       
 161 H161         -12.9987    -4.6658     4.4269 H       
 162 H162         -11.8936    -5.4420     5.4264 H       
 163 H163         -10.7523    -2.0299     0.8729 H       
 164 H164         -11.6476     0.7212     0.4761 H       
 165 H165          -9.1297    -0.3496    -0.8769 H       
 166 H166          -9.9198     1.2045    -1.2356 H       
 167 H167          -9.1795     0.9298     0.3596 H       
 168 H168         -11.9266     0.9343    -2.1959 H       
 169 H169         -12.5524    -1.6622    -3.3767 H       
 170 H170         -14.7102     0.3956    -2.7298 H       
 171 H171         -14.9419    -1.0097    -3.7974 H       
 172 H172         -14.3397    -2.5270    -1.9309 H       
 173 H173         -14.1080    -1.1217    -0.8633 H       
 174 H174         -16.4793    -0.4776    -1.1966 H       
 175 H175         -16.7109    -1.8829    -2.2642 H       
 176 H176         -15.6847    -2.7988     0.2025 H       
 177 H177         -19.5926    -1.9788    -0.0290 H       
 178 H178         -17.2119    -3.7377     1.7697 H       
 179 H179         -18.8509    -3.3846     1.6605 H       
 180 H180         -13.8485    -0.9975    -5.6753 H       
 181 H181         -12.6713     1.4659    -6.7334 H       
 182 H182         -10.8482    -0.2780    -6.8307 H       
 183 H183         -11.9075    -1.2582    -7.8725 H       
 184 H184         -12.0600     0.7300    -9.4401 H       
 185 H185         -10.3939     2.5184    -9.1884 H       
 186 H186         -11.4094     2.4365    -7.7289 H       
 187 H187          -9.7654     1.7545    -7.7086 H       
 188 H188         -10.5145    -1.1631    -9.8600 H       
 189 H189          -9.8009     0.3759   -10.3990 H       
 190 H190          -9.2683    -0.3652    -8.8708 H       
 191 H191         -13.3742     1.7057    -9.1722 H       
 192 H192         -15.7123     0.0966    -9.8590 H       
 193 H193         -15.9298     3.0425    -9.0954 H       
 194 H194         -17.2130     2.1111    -9.9043 H       
 195 H195         -17.2603     0.5230    -8.0005 H       
 196 H196         -15.9772     1.4544    -7.1916 H       
 197 H197         -17.4491     3.4495    -7.1541 H       
 198 H198         -18.7323     2.5181    -7.9630 H       
 199 H199         -17.9522     1.1224    -5.6349 H       
 200 H200         -20.4532     4.2176    -5.2318 H       
 201 H201         -19.3215     1.3260    -3.6973 H       
 202 H202         -20.3675     2.6315    -3.5413 H       
 203 H203         -16.7996     1.3933   -11.9564 H       
 204 H204         -14.7504     2.8497   -13.4422 H       
 205 H205         -15.7390     0.0951   -14.3046 H       
 206 H206         -14.8164     1.2081   -15.3430 H       
 207 H207         -13.8577     0.1646   -12.6410 H       
 208 H208         -13.0728    -0.6416   -15.4784 H       
 209 H209         -12.3062    -1.2283   -13.9830 H       
 210 H210         -14.0016    -1.6406   -14.3348 H       
 211 H211         -12.4568     1.7032   -14.8742 H       
 212 H212         -12.9467     2.3746   -13.3002 H       
 213 H213         -11.6902     1.1164   -13.3788 H       
 214 H214         -15.7988     3.1079   -15.9113 H       
 215 H215         -18.7166     3.1346   -15.7941 H       
 216 H216         -17.0692     5.6981   -15.9469 H       
 217 H217         -18.8156     5.5984   -16.2760 H       
 218 H218         -19.1972     4.7262   -13.9864 H       
 219 H219         -17.4508     4.8260   -13.6572 H       
 220 H220         -17.5149     7.2721   -14.0584 H       
 221 H221         -19.2614     7.1724   -14.3875 H       
 222 H222         -18.7666     6.0290   -11.8529 H       
 223 H223         -18.9433    10.0156   -12.1238 H       
 224 H224         -19.2059     7.3536    -9.9234 H       
 225 H225         -19.2773     9.0272   -10.0519 H       
 226 H226         -19.4450     4.4262   -18.0444 H       
 227 H227         -17.4367     4.0682   -20.1339 H       
 228 H228         -18.8808     2.4806   -21.4191 H       
 229 H229         -18.0990     1.5292   -18.6262 H       
 230 H230         -18.3622     0.4846   -20.0432 H       
 231 H231         -17.0078     1.6394   -20.0281 H       
 232 H232         -21.0303     3.0653   -20.3299 H       
 233 H233         -20.7119     1.3177   -20.2178 H       
 234 H234         -20.4470     2.3632   -18.8018 H       
 235 H235         -18.4635     4.7761   -22.3578 H       
 236 H236         -21.0516     6.1059   -22.1117 H       
 237 H237         -20.2199     8.3067   -22.7885 H       
 238 H238         -19.3878     7.8033   -21.2977 H       
 239 H239         -17.8539     8.5924   -22.9501 H       
 240 H240         -20.8742     6.3295   -25.7680 H       
 241 H241          15.4435    19.6621    20.3011 H       
 242 H242          14.0594    20.4660    21.0797 H       
 243 H243          15.1585    19.4523    22.0455 H       
 244 H244          14.4271    17.4510    20.7771 H       
 245 H245          13.0430    18.2549    21.5557 H       
 246 H246          12.5145    19.4084    19.4253 H       
 247 H247          13.8986    18.6045    18.6467 H       
 248 H248          12.8822    16.3934    19.1227 H       
 249 H249          11.4981    17.1973    19.9013 H       
 250 H250          10.9695    18.3507    17.7709 H       
 251 H251          12.3537    17.5469    16.9923 H       
 252 H252          11.3373    15.3358    17.4683 H       
 253 H253           9.9531    16.1396    18.2470 H       
 254 H254           9.4246    17.2931    16.1165 H       
 255 H255          10.8087    16.4892    15.3379 H       
 256 H256           9.7923    14.2781    15.8139 H       
 257 H257           8.4082    15.0820    16.5926 H       
 258 H258           7.8797    16.2355    14.4621 H       
 259 H259           9.2638    15.4316    13.6835 H       
 260 H260           8.2474    13.2205    14.1595 H       
 261 H261           6.8633    14.0244    14.9382 H       
 262 H262           6.3347    15.1779    12.8077 H       
 263 H263           7.7188    14.3740    12.0291 H       
 264 H264           6.7024    12.1629    12.5052 H       
 265 H265           5.3183    12.9668    13.2838 H       
 266 H266           4.7898    14.1203    11.1533 H       
 267 H267           6.1739    13.3164    10.3747 H       
 268 H268           5.1575    11.1053    10.8508 H       
 269 H269           3.7734    11.9092    11.6294 H       
 270 H270           4.6290    12.2588     8.7203 H       
 271 H271           3.2449    13.0626     9.4990 H       
@<TRIPOS>BOND
   1    1    2 2
   2    1    4 1
   3    1   14 am
   4    3    4 1
   5    3  124 1
   6    3  125 1
   7    4    5 1
   8    4  126 1
   9    5    6 1
  10    5  127 1
  11    5  128 1
  12    6    7 1
  13    6  129 1
  14    6  130 1
  15    7    8 1
  16    7  131 1
  17    7  132 1
  18    8    9 1
  19    8  133 1
  20    9   10 2
  21    9   11 1
  22   10  134 1
  23   11  107 am
  24   11  135 1
  25   12   13 2
  26   12   21 am
  27   12   15 1
  28   14   15 1
  29   14   18 1
  30   15   16 1
  31   15  136 1
  32   16   17 1
  33   16  137 1
  34   16  138 1
  35   17   18 1
  36   17  139 1
  37   17  140 1
  38   18  141 1
  39   18  142 1
  40   19   20 2
  41   19   22 1
  42   19   28 am
  43   21   22 1
  44   21  143 1
  45   22   23 1
  46   22  144 1
  47   23   24 1
  48   23   25 1
  49   23  145 1
  50   24  146 1
  51   24  147 1
  52   24  148 1
  53   25  149 1
  54   25  150 1
  55   25  151 1
  56   26   27 2
  57   26   29 1
  58   26   33 am
  59   28   29 1
  60   28  152 1
  61   29   30 1
  62   29  153 1
  63   30  154 1
  64   30  155 1
  65   30  156 1
  66   31   32 2
  67   31   34 1
  68   31   41 am
  69   33   34 1
  70   33  157 1
  71   34   35 1
  72   34  158 1
  73   35   36 1
  74   35  159 1
  75   35  160 1
  76   36   37 2
  77   36   38 am
  78   38  161 1
  79   38  162 1
  80   39   40 2
  81   39   42 1
  82   39   46 am
  83   41   42 1
  84   41  163 1
  85   42   43 1
  86   42  164 1
  87   43  165 1
  88   43  166 1
  89   43  167 1
  90   44   45 2
  91   44   47 1
  92   44   57 am
  93   46   47 1
  94   46  168 1
  95   47   48 1
  96   47  169 1
  97   48   49 1
  98   48  170 1
  99   48  171 1
 100   49   50 1
 101   49  172 1
 102   49  173 1
 103   50   51 1
 104   50  174 1
 105   50  175 1
 106   51   52 1
 107   51  176 1
 108   52   53 2
 109   52   54 1
 110   53  177 1
 111   54  178 1
 112   54  179 1
 113   55   56 2
 114   55   58 1
 115   55   65 am
 116   57   58 1
 117   57  180 1
 118   58   59 1
 119   58  181 1
 120   59   60 1
 121   59  182 1
 122   59  183 1
 123   60   61 1
 124   60   62 1
 125   60  184 1
 126   61  185 1
 127   61  186 1
 128   61  187 1
 129   62  188 1
 130   62  189 1
 131   62  190 1
 132   63   64 2
 133   63   66 1
 134   63   76 am
 135   65   66 1
 136   65  191 1
 137   66   67 1
 138   66  192 1
 139   67   68 1
 140   67  193 1
 141   67  194 1
 142   68   69 1
 143   68  195 1
 144   68  196 1
 145   69   70 1
 146   69  197 1
 147   69  198 1
 148   70   71 1
 149   70  199 1
 150   71   72 2
 151   71   73 1
 152   72  200 1
 153   73  201 1
 154   73  202 1
 155   74   75 2
 156   74   77 1
 157   74   84 am
 158   76   77 1
 159   76  203 1
 160   77   78 1
 161   77  204 1
 162   78   79 1
 163   78  205 1
 164   78  206 1
 165   79   80 1
 166   79   81 1
 167   79  207 1
 168   80  208 1
 169   80  209 1
 170   80  210 1
 171   81  211 1
 172   81  212 1
 173   81  213 1
 174   82   83 2
 175   82   85 1
 176   82   95 am
 177   84   85 1
 178   84  214 1
 179   85   86 1
 180   85  215 1
 181   86   87 1
 182   86  216 1
 183   86  217 1
 184   87   88 1
 185   87  218 1
 186   87  219 1
 187   88   89 1
 188   88  220 1
 189   88  221 1
 190   89   90 1
 191   89  222 1
 192   90   91 2
 193   90   92 1
 194   91  223 1
 195   92  224 1
 196   92  225 1
 197   93   94 2
 198   93   96 1
 199   93  102 am
 200   95   96 1
 201   95  226 1
 202   96   97 1
 203   96  227 1
 204   97   98 1
 205   97   99 1
 206   97  228 1
 207   98  229 1
 208   98  230 1
 209   98  231 1
 210   99  232 1
 211   99  233 1
 212   99  234 1
 213  100  101 2
 214  100  103 1
 215  100  106 1
 216  102  103 1
 217  102  235 1
 218  103  104 1
 219  103  236 1
 220  104  105 1
 221  104  237 1
 222  104  238 1
 223  105  239 1
 224  106  240 1
 225  107  108 2
 226  107  123 1
 227  109  110 1
 228  109  241 1
 229  109  242 1
 230  109  243 1
 231  110  111 1
 232  110  244 1
 233  110  245 1
 234  111  112 1
 235  111  246 1
 236  111  247 1
 237  112  113 1
 238  112  248 1
 239  112  249 1
 240  113  114 1
 241  113  250 1
 242  113  251 1
 243  114  115 1
 244  114  252 1
 245  114  253 1
 246  115  116 1
 247  115  254 1
 248  115  255 1
 249  116  117 1
 250  116  256 1
 251  116  257 1
 252  117  118 1
 253  117  258 1
 254  117  259 1
 255  118  119 1
 256  118  260 1
 257  118  261 1
 258  119  120 1
 259  119  262 1
 260  119  263 1
 261  120  121 1
 262  120  264 1
 263  120  265 1
 264  121  122 1
 265  121  266 1
 266  121  267 1
 267  122  123 1
 268  122  268 1
 269  122  269 1
 270  123  270 1
 271  123  271 1

#	End of record

