#	Name: ASD00310084
#	Creating user name:	WinNT
#	Creation time:	15. 06. 2019 18:33

#	Modifying user name:	WinNT
#	Modification time:	15. 06. 2019 18:33

#	Program:	/corina/corina34_cracker 3.40 0067  02.08.2006

@<TRIPOS>MOLECULE
ASD00310084
  32   34    0    0    0
SMALL
NO_CHARGES


@<TRIPOS>ATOM
   1 N1            -0.0162     1.3427     0.0094 N.pl3   
   2 C2             0.0021    -0.0041     0.0020 C.2     
   3 C3             1.3064    -0.4496    -0.0128 C.2     
   4 C4             2.1541     0.7600    -0.0144 C.ar    
   5 C5             3.5277     0.9732    -0.0260 C.ar    
   6 C6             4.0206     2.2721    -0.0233 C.ar    
   7 C7             3.1352     3.3564    -0.0091 C.ar    
   8 C8             1.7742     3.1462     0.0024 C.ar    
   9 C9             1.2678     1.8489    -0.0001 C.ar    
  10 C10            1.7455    -1.7967    -0.0238 C.2     
  11 O11            0.9341    -2.6998    -0.0210 O.2     
  12 C12            5.4849     2.5099    -0.0351 C.ar    
  13 C13            6.0416     3.3923    -0.9594 C.ar    
  14 C14            7.4032     3.6117    -0.9676 C.ar    
  15 C15            8.2191     2.9545    -0.0568 C.ar    
  16 C16            7.6676     2.0748     0.8647 C.ar    
  17 C17            6.3060     1.8560     0.8818 C.ar    
  18 O18            9.5603     3.1724    -0.0676 O.3     
  19 C19           10.3406     2.4633     0.8970 C.3     
  20 F20            3.6193     4.6177    -0.0061 F       
  21 H21           -0.8217     1.8831     0.0163 H       
  22 H22           -0.8721    -0.6383     0.0073 H       
  23 H23            4.2076     0.1342    -0.0366 H       
  24 H24            1.0985     3.9887     0.0138 H       
  25 H25            2.8021    -2.0202    -0.0348 H       
  26 H26            5.4074     3.9033    -1.6687 H       
  27 H27            7.8351     4.2953    -1.6835 H       
  28 H28            8.3049     1.5647     1.5718 H       
  29 H29            5.8770     1.1748     1.6019 H       
  30 H30           10.0085     2.7305     1.9003 H       
  31 H31           10.2169     1.3908     0.7469 H       
  32 H32           11.3915     2.7278     0.7797 H       
@<TRIPOS>BOND
   1    1    2 1
   2    1    9 1
   3    1   21 1
   4    2    3 2
   5    2   22 1
   6    3    4 1
   7    3   10 1
   8    4    5 ar
   9    4    9 ar
  10    5    6 ar
  11    5   23 1
  12    6    7 ar
  13    6   12 1
  14    7    8 ar
  15    7   20 1
  16    8    9 ar
  17    8   24 1
  18   10   11 2
  19   10   25 1
  20   12   13 ar
  21   12   17 ar
  22   13   14 ar
  23   13   26 1
  24   14   15 ar
  25   14   27 1
  26   15   16 ar
  27   15   18 1
  28   16   17 ar
  29   16   28 1
  30   17   29 1
  31   18   19 1
  32   19   30 1
  33   19   31 1
  34   19   32 1

#	End of record

