#	Name: ASD01814529
#	Creating user name:	WinNT
#	Creation time:	15. 06. 2019 19:32

#	Modifying user name:	WinNT
#	Modification time:	15. 06. 2019 19:32

#	Program:	/corina/corina34_cracker 3.40 0067  02.08.2006

@<TRIPOS>MOLECULE
ASD01814529
  41   43    0    0    0
SMALL
NO_CHARGES


@<TRIPOS>ATOM
   1 C1            -0.0167     1.3838     0.0097 C.ar    
   2 C2             0.0021    -0.0041     0.0020 C.ar    
   3 C3            -1.1856    -0.7102     0.0095 C.ar    
   4 C4            -2.3929    -0.0367     0.0246 C.ar    
   5 C5            -2.4171     1.3462     0.0318 C.ar    
   6 C6            -1.2326     2.0594     0.0307 C.ar    
   7 F7            -1.2561     3.4102     0.0377 F       
   8 N8             1.1856     2.1022     0.0020 N.am    
   9 C9             1.8853     2.4202    -1.1059 C.2     
  10 N10            1.8253     2.5951     1.1382 N.2     
  11 C11            2.9218     3.2227     0.8368 C.2     
  12 C12            3.0706     3.1730    -0.6350 C.2     
  13 O13            1.6013     2.1444    -2.2572 O.2     
  14 C14            4.0650     3.6977    -1.3819 C.2     
  15 C15            4.0434     3.5434    -2.8808 C.3     
  16 C16            4.0165     4.9052    -3.5256 C.ar    
  17 C17            5.2017     5.5819    -3.7420 C.ar    
  18 N18            2.8625     5.4351    -3.8818 N.ar    
  19 C19            2.7907     6.6231    -4.4493 C.ar    
  20 C20            3.9341     7.3607    -4.6924 C.ar    
  21 C21            5.1661     6.8342    -4.3364 C.ar    
  22 O22            3.7737     3.8172     1.7109 O.3     
  23 C23            4.5033     4.4670     3.9213 C.3     
  24 C24            3.4341     3.7470     3.0972 C.3     
  25 C25            5.2476     2.8177    -3.3168 C.1     
  26 N26            6.1769     2.2577    -3.6533 N.1     
  27 H27            0.9444    -0.5317    -0.0101 H       
  28 H28           -1.1708    -1.7900     0.0032 H       
  29 H29           -3.3193    -0.5917     0.0304 H       
  30 H30           -3.3619     1.8693     0.0433 H       
  31 H31            4.8761     4.2281    -0.9053 H       
  32 H32            3.1555     2.9842    -3.1757 H       
  33 H33            6.1439     5.1411    -3.4515 H       
  34 H34            1.8274     7.0243    -4.7276 H       
  35 H35            3.8688     8.3333    -5.1576 H       
  36 H36            6.0761     7.3880    -4.5140 H       
  37 H37            4.2443     4.4135     4.9787 H       
  38 H38            5.4697     3.9894     3.7593 H       
  39 H39            4.5578     5.5111     3.6130 H       
  40 H40            2.4678     4.2246     3.2592 H       
  41 H41            3.3796     2.7029     3.4055 H       
@<TRIPOS>BOND
   1    1    2 ar
   2    1    8 1
   3    1    6 ar
   4    2    3 ar
   5    2   27 1
   6    3    4 ar
   7    3   28 1
   8    4    5 ar
   9    4   29 1
  10    5    6 ar
  11    5   30 1
  12    6    7 1
  13    8    9 am
  14    8   10 1
  15    9   13 2
  16    9   12 1
  17   10   11 2
  18   11   12 1
  19   11   22 1
  20   12   14 2
  21   14   15 1
  22   14   31 1
  23   15   16 1
  24   15   25 1
  25   15   32 1
  26   16   17 ar
  27   16   18 ar
  28   17   21 ar
  29   17   33 1
  30   18   19 ar
  31   19   20 ar
  32   19   34 1
  33   20   21 ar
  34   20   35 1
  35   21   36 1
  36   22   24 1
  37   23   24 1
  38   23   37 1
  39   23   38 1
  40   23   39 1
  41   24   40 1
  42   24   41 1
  43   25   26 3

#	End of record

