#	Name: ASD03331805
#	Creating user name:	WinNT
#	Creation time:	15. 06. 2019 20:39

#	Modifying user name:	WinNT
#	Modification time:	15. 06. 2019 20:39

#	Program:	/corina/corina34_cracker 3.40 0067  02.08.2006

@<TRIPOS>MOLECULE
ASD03331805
  54   56    0    0    0
SMALL
NO_CHARGES


@<TRIPOS>ATOM
   1 C1             0.4250     2.0016     0.7664 C.2     
   2 N2             0.6085     0.7044     1.1269 N.pl3   
   3 C3            -0.6106     0.1502     1.3046 C.2     
   4 N4            -1.5228     1.0522     1.0659 N.2     
   5 C5            -0.9115     2.2208     0.7303 C.2     
   6 C6             1.5528     2.9594     0.4820 C.3     
   7 N7             2.7947     2.3725     1.0170 N.3     
   8 C8             2.9586     0.9815     0.5716 C.3     
   9 C9             1.9298     0.0862     1.2736 C.3     
  10 C10            3.9621     3.1843     0.6483 C.3     
  11 C11           -1.5794     3.4879     0.3853 C.2     
  12 O12           -0.9164     4.4674     0.1023 O.2     
  13 N13           -2.9252     3.5615     0.3831 N.am    
  14 C14           -3.5893     4.8214     0.0400 C.3     
  15 C15           -4.9568     4.8568     0.6724 C.2     
  16 C16           -3.7275     4.9276    -1.4800 C.3     
  17 C17           -4.5615     3.7549    -1.9996 C.3     
  18 C18           -4.4198     6.2441    -1.8384 C.3     
  19 C19           -2.3392     4.8902    -2.1221 C.3     
  20 O20           -5.4832     3.8268     1.0370 O.2     
  21 N21           -5.5947     6.0332     0.8328 N.am    
  22 C22           -6.9586     6.0599     1.3669 C.3     
  23 C23           -0.8740    -1.2768     1.7114 C.3     
  24 C24           -1.6454    -1.5097     3.0119 C.3     
  25 C25           -2.3219    -1.7690     1.6643 C.3     
  26 H26            1.6486     3.1068    -0.5937 H       
  27 H27            1.3569     3.9145     0.9694 H       
  28 H28            2.8105     0.9266    -0.5069 H       
  29 H29            3.9640     0.6388     0.8162 H       
  30 H30            2.1792    -0.0013     2.3311 H       
  31 H31            1.9269    -0.9017     0.8129 H       
  32 H32            3.8480     4.1898     1.0534 H       
  33 H33            4.8647     2.7289     1.0557 H       
  34 H34            4.0399     3.2368    -0.4376 H       
  35 H35           -3.4540     2.7802     0.6088 H       
  36 H36           -2.9960     5.6574     0.4103 H       
  37 H37           -5.5505     3.7815    -1.5421 H       
  38 H38           -4.6599     3.8306    -3.0825 H       
  39 H39           -4.0682     2.8170    -1.7442 H       
  40 H40           -3.8181     7.0800    -1.4814 H       
  41 H41           -4.5316     6.3130    -2.9205 H       
  42 H42           -5.4028     6.2773    -1.3687 H       
  43 H43           -1.8460     3.9523    -1.8668 H       
  44 H44           -2.4376     4.9659    -3.2050 H       
  45 H45           -1.7450     5.7257    -1.7520 H       
  46 H46           -5.1508     6.8621     0.5946 H       
  47 H47           -7.3062     7.0914     1.4243 H       
  48 H48           -7.6170     5.4906     0.7107 H       
  49 H49           -6.9675     5.6176     2.3631 H       
  50 H50           -0.0908    -1.9906     1.4560 H       
  51 H51           -1.3701    -2.3771     3.6120 H       
  52 H52           -1.9624    -0.6309     3.5734 H       
  53 H53           -3.0839    -1.0607     1.3392 H       
  54 H54           -2.4915    -2.8069     1.3778 H       
@<TRIPOS>BOND
   1    1    2 1
   2    1    6 1
   3    1    5 2
   4    2    3 1
   5    2    9 1
   6    3    4 2
   7    3   23 1
   8    4    5 1
   9    5   11 1
  10    6    7 1
  11    6   26 1
  12    6   27 1
  13    7    8 1
  14    7   10 1
  15    8    9 1
  16    8   28 1
  17    8   29 1
  18    9   30 1
  19    9   31 1
  20   10   32 1
  21   10   33 1
  22   10   34 1
  23   11   12 2
  24   11   13 am
  25   13   14 1
  26   13   35 1
  27   14   15 1
  28   14   16 1
  29   14   36 1
  30   15   20 2
  31   15   21 am
  32   16   17 1
  33   16   18 1
  34   16   19 1
  35   17   37 1
  36   17   38 1
  37   17   39 1
  38   18   40 1
  39   18   41 1
  40   18   42 1
  41   19   43 1
  42   19   44 1
  43   19   45 1
  44   21   22 1
  45   21   46 1
  46   22   47 1
  47   22   48 1
  48   22   49 1
  49   23   24 1
  50   23   25 1
  51   23   50 1
  52   24   25 1
  53   24   51 1
  54   24   52 1
  55   25   53 1
  56   25   54 1

#	End of record

