#	Name: ASD04590555
#	Creating user name:	WinNT
#	Creation time:	15. 06. 2019 20:51

#	Modifying user name:	WinNT
#	Modification time:	15. 06. 2019 20:51

#	Program:	/corina/corina34_cracker 3.40 0067  02.08.2006

@<TRIPOS>MOLECULE
ASD04590555
  65   70    0    0    0
SMALL
NO_CHARGES


@<TRIPOS>ATOM
   1 N1             2.2811     1.4210    -0.0354 N.ar    
   2 C2             2.3849     0.1066    -0.0538 C.ar    
   3 C3             1.2579    -0.6961    -0.0430 C.ar    
   4 C4             0.0083    -0.1049    -0.0079 C.ar    
   5 C5            -0.0710     1.2782     0.0098 C.ar    
   6 C6             1.1027     2.0236    -0.0052 C.ar    
   7 N7             1.0381     3.4141     0.0120 N.pl3   
   8 C8             2.2014     4.1604     0.1091 C.ar    
   9 N9             2.1241     5.4779     0.0155 N.ar    
  10 C10            3.2183     6.2282     0.1038 C.ar    
  11 C11            4.4584     5.5872     0.2989 C.ar    
  12 C12            4.4898     4.1993     0.3912 C.ar    
  13 N13            3.3530     3.5292     0.2979 N.ar    
  14 N14            3.4348     7.5826     0.0445 N.pl3   
  15 C15            4.7818     7.8641     0.1940 C.ar    
  16 C16            5.4710     6.6491     0.3571 C.ar    
  17 C17            5.5109     9.0461     0.2094 C.ar    
  18 N18            6.8180     9.0252     0.3729 N.ar    
  19 C19            7.4951     7.9012     0.5287 C.ar    
  20 C20            6.8545     6.6804     0.5276 C.ar    
  21 C21            2.3876     8.5884    -0.1506 C.3     
  22 C22            1.3723     8.4954     0.9902 C.3     
  23 C23            0.2787     9.5458     0.7865 C.3     
  24 C24           -0.4281     9.2942    -0.5469 C.3     
  25 C25            0.5872     9.3872    -1.6878 C.3     
  26 C26            1.6809     8.3368    -1.4840 C.3     
  27 C27           -1.5217    10.3446    -0.7506 C.3     
  28 C28            1.4212    -2.1926    -0.0751 C.3     
  29 C29            0.1186    -2.8666     0.3592 C.3     
  30 N30           -0.9909    -2.2915    -0.4174 N.3     
  31 C31           -1.2577    -0.9154     0.0160 C.3     
  32 C32           -2.1975    -3.1219    -0.3058 C.3     
  33 C33           -3.3881    -2.3756    -0.9110 C.3     
  34 O34           -3.1777    -2.2010    -2.3137 O.3     
  35 H35            3.3634    -0.3498    -0.0781 H       
  36 H36           -1.0318     1.7708     0.0349 H       
  37 H37            0.1788     3.8604    -0.0441 H       
  38 H38            5.4244     3.6790     0.5401 H       
  39 H39            5.0020     9.9906     0.0860 H       
  40 H40            8.5666     7.9395     0.6587 H       
  41 H41            7.4140     5.7654     0.6551 H       
  42 H42            2.8353     9.5822    -0.1585 H       
  43 H43            0.9247     7.5016     0.9981 H       
  44 H44            1.8759     8.6747     1.9402 H       
  45 H45           -0.4446     9.4796     1.5993 H       
  46 H46            0.7264    10.5396     0.7786 H       
  47 H47           -0.8757     8.3004    -0.5390 H       
  48 H48            0.0837     9.2079    -2.6377 H       
  49 H49            1.0349    10.3810    -1.6956 H       
  50 H50            2.4042     8.4030    -2.2968 H       
  51 H51            1.2332     7.3430    -1.4761 H       
  52 H52           -1.0740    11.3384    -0.7585 H       
  53 H53           -2.0252    10.1654    -1.7006 H       
  54 H54           -2.2450    10.2784     0.0621 H       
  55 H55            1.6720    -2.5080    -1.0879 H       
  56 H56            2.2233    -2.4841     0.6028 H       
  57 H57            0.1806    -3.9382     0.1699 H       
  58 H58           -0.0482    -2.6894     1.4216 H       
  59 H59           -1.6590    -0.9278     1.0294 H       
  60 H60           -1.9890    -0.4618    -0.6531 H       
  61 H61           -2.0450    -4.0584    -0.8422 H       
  62 H62           -2.3972    -3.3333     0.7447 H       
  63 H63           -4.2988    -2.9522    -0.7492 H       
  64 H64           -3.4860    -1.4003    -0.4342 H       
  65 H65           -3.8949    -1.7341    -2.7638 H       
@<TRIPOS>BOND
   1    1    2 ar
   2    1    6 ar
   3    2    3 ar
   4    2   35 1
   5    3    4 ar
   6    3   28 1
   7    4    5 ar
   8    4   31 1
   9    5    6 ar
  10    5   36 1
  11    6    7 1
  12    7    8 1
  13    7   37 1
  14    8    9 ar
  15    8   13 ar
  16    9   10 ar
  17   10   11 ar
  18   10   14 1
  19   11   12 ar
  20   11   16 1
  21   12   13 ar
  22   12   38 1
  23   14   15 1
  24   14   21 1
  25   15   16 ar
  26   15   17 ar
  27   16   20 ar
  28   17   18 ar
  29   17   39 1
  30   18   19 ar
  31   19   20 ar
  32   19   40 1
  33   20   41 1
  34   21   22 1
  35   21   26 1
  36   21   42 1
  37   22   23 1
  38   22   43 1
  39   22   44 1
  40   23   24 1
  41   23   45 1
  42   23   46 1
  43   24   25 1
  44   24   27 1
  45   24   47 1
  46   25   26 1
  47   25   48 1
  48   25   49 1
  49   26   50 1
  50   26   51 1
  51   27   52 1
  52   27   53 1
  53   27   54 1
  54   28   29 1
  55   28   55 1
  56   28   56 1
  57   29   30 1
  58   29   57 1
  59   29   58 1
  60   30   31 1
  61   30   32 1
  62   31   59 1
  63   31   60 1
  64   32   33 1
  65   32   61 1
  66   32   62 1
  67   33   34 1
  68   33   63 1
  69   33   64 1
  70   34   65 1

#	End of record

