#	Name: ASD01883775
#	Creating user name:	WinNT
#	Creation time:	15. 06. 2019 19:47

#	Modifying user name:	WinNT
#	Modification time:	15. 06. 2019 19:47

#	Program:	/corina/corina34_cracker 3.40 0067  02.08.2006

@<TRIPOS>MOLECULE
ASD01883775
  56   60    0    0    0
SMALL
NO_CHARGES


@<TRIPOS>ATOM
   1 C1            -0.0167     1.3836     0.0096 C.ar    
   2 C2             0.0021    -0.0041     0.0020 C.ar    
   3 C3             1.2143    -0.6912    -0.0132 C.ar    
   4 C4             2.4024     0.0169    -0.0207 C.ar    
   5 C5             2.3801     1.4278    -0.0130 C.ar    
   6 C6             1.1668     2.1002     0.0022 C.ar    
   7 C7             3.8309    -0.3642    -0.0364 C.2     
   8 N8             4.5726     0.7581    -0.0374 N.am    
   9 C9             3.7929     1.8540    -0.0241 C.2     
  10 O10            4.1862     3.0034    -0.0213 O.2     
  11 O11            4.2621    -1.4995    -0.0463 O.2     
  12 C12            6.0374     0.7834    -0.0508 C.3     
  13 C13            6.5404     1.5217    -1.3037 C.3     
  14 C14            7.3546     2.7331    -0.8042 C.3     
  15 C15            7.8009     2.3285     0.6227 C.3     
  16 C16            6.5634     1.5719     1.1663 C.3     
  17 O17           -1.1659    -0.6953     0.0099 O.3     
  18 C18           -2.3726     0.0700     0.0260 C.3     
  19 C19           -3.5577    -0.8608     0.0327 C.ar    
  20 C20           -4.0875    -1.2927     1.2315 C.ar    
  21 C21           -5.1837    -2.1530     1.2363 C.ar    
  22 C22           -5.7387    -2.5725     0.0293 C.ar    
  23 C23           -5.2008    -2.1343    -1.1640 C.ar    
  24 C24           -4.1161    -1.2763    -1.1629 C.ar    
  25 C25           -5.7574    -2.6211     2.5224 C.ar    
  26 C26           -5.1999    -2.2004     3.7296 C.ar    
  27 C27           -5.7306    -2.6341     4.9284 C.ar    
  28 C28           -6.8174    -3.4873     4.9409 C.ar    
  29 C29           -7.3854    -3.9158     3.7370 C.ar    
  30 C30           -6.8548    -3.4751     2.5250 C.ar    
  31 C31           -8.5469    -4.8275     3.7491 C.2     
  32 O32           -9.0924    -5.2390     2.5880 O.3     
  33 O33           -9.0105    -5.2066     4.8060 O.2     
  34 Cl34          -7.4780    -4.0283     6.4525 Cl      
  35 H35           -0.9612     1.9074     0.0169 H       
  36 H36            1.2260    -1.7711    -0.0188 H       
  37 H37            1.1461     3.1800     0.0082 H       
  38 H38            6.4282    -0.2340    -0.0348 H       
  39 H39            7.1761     0.8628    -1.8953 H       
  40 H40            5.6947     1.8611    -1.9018 H       
  41 H41            8.2223     2.8989    -1.4427 H       
  42 H42            6.7290     3.6250    -0.7697 H       
  43 H43            8.6693     1.6709     0.5840 H       
  44 H44            8.0100     3.2112     1.2269 H       
  45 H45            5.8101     2.2764     1.5190 H       
  46 H46            6.8538     0.8904     1.9658 H       
  47 H47           -2.3954     0.6937     0.9196 H       
  48 H48           -2.4130     0.7033    -0.8603 H       
  49 H49           -3.6531    -0.9647     2.1644 H       
  50 H50           -6.5881    -3.2395     0.0273 H       
  51 H51           -5.6301    -2.4592    -2.1003 H       
  52 H52           -3.6986    -0.9357    -2.0988 H       
  53 H53           -4.3504    -1.5336     3.7268 H       
  54 H54           -5.2941    -2.3054     5.8600 H       
  55 H55           -7.2891    -3.8026     1.5920 H       
  56 H56           -9.8513    -5.8354     2.6465 H       
@<TRIPOS>BOND
   1    1    2 ar
   2    1    6 ar
   3    1   35 1
   4    2    3 ar
   5    2   17 1
   6    3    4 ar
   7    3   36 1
   8    4    5 ar
   9    4    7 1
  10    5    6 ar
  11    5    9 1
  12    6   37 1
  13    7    8 am
  14    7   11 2
  15    8    9 am
  16    8   12 1
  17    9   10 2
  18   12   13 1
  19   12   16 1
  20   12   38 1
  21   13   14 1
  22   13   39 1
  23   13   40 1
  24   14   15 1
  25   14   41 1
  26   14   42 1
  27   15   16 1
  28   15   43 1
  29   15   44 1
  30   16   45 1
  31   16   46 1
  32   17   18 1
  33   18   19 1
  34   18   47 1
  35   18   48 1
  36   19   20 ar
  37   19   24 ar
  38   20   21 ar
  39   20   49 1
  40   21   22 ar
  41   21   25 1
  42   22   23 ar
  43   22   50 1
  44   23   24 ar
  45   23   51 1
  46   24   52 1
  47   25   26 ar
  48   25   30 ar
  49   26   27 ar
  50   26   53 1
  51   27   28 ar
  52   27   54 1
  53   28   29 ar
  54   28   34 1
  55   29   30 ar
  56   29   31 1
  57   30   55 1
  58   31   32 1
  59   31   33 2
  60   32   56 1

#	End of record

