#	Name: ASD01911894
#	Creating user name:	WinNT
#	Creation time:	15. 06. 2019 19:58

#	Modifying user name:	WinNT
#	Modification time:	15. 06. 2019 19:58

#	Program:	/corina/corina34_cracker 3.40 0067  02.08.2006

@<TRIPOS>MOLECULE
ASD01911894
  38   40    0    0    0
SMALL
NO_CHARGES


@<TRIPOS>ATOM
   1 C1            -1.0583    -0.4831    -2.0435 C.ar    
   2 C2            -1.0631     0.0686    -0.7663 C.ar    
   3 C3            -1.0159     1.4482    -0.6276 C.ar    
   4 N4            -0.9670     2.2307    -1.6874 N.ar    
   5 C5            -0.9609     1.7424    -2.9120 C.ar    
   6 C6            -1.0061     0.3756    -3.1319 C.ar    
   7 O7            -1.1139    -0.7328     0.3300 O.3     
   8 C8            -1.1597    -2.0769     0.1362 C.ar    
   9 C9            -0.0054    -2.7694    -0.2026 C.ar    
  10 C10           -0.0506    -4.1374    -0.3997 C.ar    
  11 C11           -1.2455    -4.8192    -0.2599 C.ar    
  12 C12           -2.4032    -4.1305     0.0786 C.ar    
  13 C13           -2.3581    -2.7580     0.2823 C.ar    
  14 N14           -3.6118    -4.8196     0.2191 N.am    
  15 C15           -3.6154    -6.0872     0.6768 C.2     
  16 C16           -4.8825    -6.8528     0.7272 C.ar    
  17 O17           -2.5792    -6.6021     1.0483 O.2     
  18 C18           -4.8797    -8.1625     1.2013 C.ar    
  19 C19           -6.0733    -8.8663     1.2424 C.ar    
  20 C20           -7.2281    -8.2353     0.8077 C.ar    
  21 C21           -7.1571    -6.9296     0.3483 C.ar    
  22 N22           -6.0122    -6.2831     0.3251 N.ar    
  23 C23           -8.4101    -6.2393    -0.1254 C.3     
  24 F24           -0.9990    -0.1152    -4.3905 F       
  25 Cl25           1.3949    -5.0001    -0.8238 Cl      
  26 F26           -9.0166    -5.5833     0.9512 F       
  27 F27           -8.0828    -5.3065    -1.1154 F       
  28 F28           -9.2942    -7.1872    -0.6518 F       
  29 H29           -1.0899    -1.5534    -2.1841 H       
  30 H30           -1.0196     1.8861     0.3597 H       
  31 H31           -0.9205     2.4168    -3.7545 H       
  32 H32            0.9290    -2.2392    -0.3127 H       
  33 H33           -1.2786    -5.8876    -0.4142 H       
  34 H34           -3.2571    -2.2205     0.5455 H       
  35 H35           -4.4475    -4.3853    -0.0129 H       
  36 H36           -3.9606    -8.6233     1.5319 H       
  37 H37           -6.1025    -9.8833     1.6046 H       
  38 H38           -8.1741    -8.7561     0.8265 H       
@<TRIPOS>BOND
   1    1    2 ar
   2    1    6 ar
   3    1   29 1
   4    2    3 ar
   5    2    7 1
   6    3    4 ar
   7    3   30 1
   8    4    5 ar
   9    5    6 ar
  10    5   31 1
  11    6   24 1
  12    7    8 1
  13    8    9 ar
  14    8   13 ar
  15    9   10 ar
  16    9   32 1
  17   10   11 ar
  18   10   25 1
  19   11   12 ar
  20   11   33 1
  21   12   13 ar
  22   12   14 1
  23   13   34 1
  24   14   15 am
  25   14   35 1
  26   15   16 1
  27   15   17 2
  28   16   18 ar
  29   16   22 ar
  30   18   19 ar
  31   18   36 1
  32   19   20 ar
  33   19   37 1
  34   20   21 ar
  35   20   38 1
  36   21   22 ar
  37   21   23 1
  38   23   26 1
  39   23   27 1
  40   23   28 1

#	End of record

