#	Name: ASD01208755
#	Creating user name:	WinNT
#	Creation time:	15. 06. 2019 19:10

#	Modifying user name:	WinNT
#	Modification time:	15. 06. 2019 19:10

#	Program:	/corina/corina34_cracker 3.40 0067  02.08.2006

@<TRIPOS>MOLECULE
ASD01208755
  55   58    0    0    0
SMALL
NO_CHARGES


@<TRIPOS>ATOM
   1 C1            -0.2564     1.7810     0.5368 C.2     
   2 C2            -0.2246     0.3202     0.3126 C.ar    
   3 C3             0.9443    -0.2929    -0.1408 C.ar    
   4 C4             0.9698    -1.6617    -0.3496 C.ar    
   5 C5            -0.1645    -2.4236    -0.1087 C.ar    
   6 C6            -1.3287    -1.8183     0.3421 C.ar    
   7 C7            -1.3612    -0.4502     0.5591 C.ar    
   8 O8             0.7365     2.4500     0.3263 O.2     
   9 N9            -1.3878     2.3719     0.9694 N.am    
  10 O10           -2.4371    -2.5689     0.5761 O.3     
  11 C11           -3.4349    -2.5380    -0.3459 C.ar    
  12 C12           -3.2828    -1.7965    -1.5060 C.ar    
  13 C13           -4.3092    -1.7679    -2.4497 C.ar    
  14 C14           -5.4832    -2.4869    -2.2188 C.ar    
  15 C15           -5.6245    -3.2223    -1.0599 C.ar    
  16 C16           -4.6041    -3.2542    -0.1274 C.ar    
  17 O17           -5.0602    -0.8619    -4.6819 O.3     
  18 C18           -4.1545    -0.9784    -3.6902 C.2     
  19 N19           -3.1103    -0.2602    -4.0307 N.2     
  20 N20           -3.3273     0.2882    -5.1742 N.2     
  21 C21           -4.5089    -0.0555    -5.6052 C.2     
  22 C22           -5.1416     0.3730    -6.9040 C.3     
  23 O23            2.1075    -2.2596    -0.7915 O.3     
  24 C24            3.1130    -4.0097    -2.1206 C.3     
  25 C25            2.0305    -3.6528    -1.1000 C.3     
  26 C26            2.2430    -4.4701     0.1758 C.3     
  27 O27            4.4020    -3.8234    -1.5326 O.3     
  28 C28            5.4897    -4.1308    -2.4070 C.3     
  29 S29           -2.8132     4.6624     1.7414 S.3     
  30 C30           -1.4178     3.7454     1.1802 C.2     
  31 N31           -0.4220     4.5570     0.9951 N.2     
  32 C32           -0.6354     5.8348     1.2479 C.2     
  33 C33           -1.8635     6.1453     1.6689 C.2     
  34 F34           -2.3029     7.3831     1.9849 F       
  35 H35            1.8276     0.2993    -0.3289 H       
  36 H36           -0.1413    -3.4907    -0.2729 H       
  37 H37           -2.2665     0.0196     0.9143 H       
  38 H38           -2.1813     1.8386     1.1336 H       
  39 H39           -2.3723    -1.2419    -1.6790 H       
  40 H40           -6.2808    -2.4673    -2.9468 H       
  41 H41           -6.5334    -3.7782    -0.8826 H       
  42 H42           -4.7185    -3.8348     0.7760 H       
  43 H43           -5.7038     1.2937    -6.7479 H       
  44 H44           -4.3637     0.5440    -7.6482 H       
  45 H45           -5.8151    -0.4087    -7.2555 H       
  46 H46            2.9985    -5.0507    -2.4227 H       
  47 H47            3.0155    -3.3651    -2.9942 H       
  48 H48            1.0492    -3.8788    -1.5172 H       
  49 H49            3.2243    -4.2441     0.5929 H       
  50 H50            1.4717    -4.2159     0.9028 H       
  51 H51            2.1842    -5.5328    -0.0596 H       
  52 H52            5.4415    -3.4887    -3.2865 H       
  53 H53            6.4327    -3.9639    -1.8865 H       
  54 H54            5.4245    -5.1744    -2.7150 H       
  55 H55            0.1347     6.5815     1.1225 H       
@<TRIPOS>BOND
   1    1    2 1
   2    1    8 2
   3    1    9 am
   4    2    3 ar
   5    2    7 ar
   6    3    4 ar
   7    3   35 1
   8    4    5 ar
   9    4   23 1
  10    5    6 ar
  11    5   36 1
  12    6    7 ar
  13    6   10 1
  14    7   37 1
  15    9   30 1
  16    9   38 1
  17   10   11 1
  18   11   12 ar
  19   11   16 ar
  20   12   13 ar
  21   12   39 1
  22   13   14 ar
  23   13   18 1
  24   14   15 ar
  25   14   40 1
  26   15   16 ar
  27   15   41 1
  28   16   42 1
  29   17   18 1
  30   17   21 1
  31   18   19 2
  32   19   20 1
  33   20   21 2
  34   21   22 1
  35   22   43 1
  36   22   44 1
  37   22   45 1
  38   23   25 1
  39   24   25 1
  40   24   27 1
  41   24   46 1
  42   24   47 1
  43   25   26 1
  44   25   48 1
  45   26   49 1
  46   26   50 1
  47   26   51 1
  48   27   28 1
  49   28   52 1
  50   28   53 1
  51   28   54 1
  52   29   30 1
  53   29   33 1
  54   30   31 2
  55   31   32 1
  56   32   33 2
  57   32   55 1
  58   33   34 1

#	End of record

