#	Name: ASD01811433
#	Creating user name:	WinNT
#	Creation time:	15. 06. 2019 19:26

#	Modifying user name:	WinNT
#	Modification time:	15. 06. 2019 19:26

#	Program:	/corina/corina34_cracker 3.40 0067  02.08.2006

@<TRIPOS>MOLECULE
ASD01811433
  66   69    0    0    0
SMALL
NO_CHARGES


@<TRIPOS>ATOM
   1 C1            -0.1291     1.6657    -1.1678 C.2     
   2 C2            -0.0901     0.2156    -1.4354 C.ar    
   3 C3             0.9550    -0.3414    -2.1890 C.ar    
   4 C4             0.9512    -1.6916    -2.4123 C.ar    
   5 C5            -0.0814    -2.4684    -1.8893 C.ar    
   6 N6            -1.0573    -1.9170    -1.1809 N.ar    
   7 C7            -1.0886    -0.6232    -0.9380 C.ar    
   8 O8             0.7481     2.3878    -1.6012 O.2     
   9 N9            -1.1400     2.1911    -0.4478 N.am    
  10 N10           -0.0884    -3.8348    -2.1132 N.pl3   
  11 C11            0.9845    -4.4545    -2.8949 C.3     
  12 C12            2.1722    -4.7586    -1.9795 C.3     
  13 C13            0.4751    -5.7554    -3.5187 C.3     
  14 C14           -2.3255     4.2497     0.0170 C.ar    
  15 C15           -1.1315     3.5509    -0.1186 C.ar    
  16 C16            0.0709     4.2202     0.0773 C.ar    
  17 C17            0.0258     5.5796     0.4054 C.ar    
  18 C18           -1.2159     6.2055     0.5220 C.ar    
  19 N19           -2.3302     5.5313     0.3269 N.ar    
  20 C20           -3.6336     3.5336    -0.1998 C.3     
  21 C21            1.2741     6.3408     0.6254 C.2     
  22 O22            1.4167     7.4349     0.1154 O.2     
  23 N23            2.2539     5.8216     1.3915 N.am    
  24 C24            2.1393     4.4603     1.9323 C.3     
  25 C25            2.3460     4.5134     3.4493 C.3     
  26 C26            3.6787     5.2010     3.7548 C.3     
  27 C27            3.6490     6.6350     3.2209 C.3     
  28 C28            3.4596     6.6039     1.6967 C.3     
  29 C29            3.9014     5.2247     5.2450 C.ar    
  30 C30            5.0123     4.6014     5.7852 C.ar    
  31 C31            5.2224     4.6192     7.1485 C.ar    
  32 C32            4.3110     5.2686     7.9836 C.ar    
  33 C33            3.1923     5.8959     7.4317 C.ar    
  34 C34            2.9971     5.8745     6.0662 C.ar    
  35 C35            4.5224     5.2907     9.3998 C.1     
  36 N36            4.6901     5.3082    10.5232 N.1     
  37 H37            1.7439     0.2815    -2.5840 H       
  38 H38            1.7408    -2.1509    -2.9885 H       
  39 H39           -1.8955    -0.2072    -0.3531 H       
  40 H40           -1.8735     1.6264    -0.1578 H       
  41 H41           -0.8037    -4.3817    -1.7525 H       
  42 H42            1.2996    -3.7721    -3.6843 H       
  43 H43            1.8570    -5.4410    -1.1902 H       
  44 H44            2.9704    -5.2197    -2.5612 H       
  45 H45            2.5351    -3.8318    -1.5352 H       
  46 H46           -0.3710    -5.5387    -4.1708 H       
  47 H47            1.2734    -6.2164    -4.1003 H       
  48 H48            0.1600    -6.4378    -2.7293 H       
  49 H49            1.0148     3.7045    -0.0206 H       
  50 H50           -1.2636     7.2544     0.7747 H       
  51 H51           -3.9796     3.1149     0.7452 H       
  52 H52           -4.3747     4.2374    -0.5785 H       
  53 H53           -3.4925     2.7304    -0.9231 H       
  54 H54            1.1490     4.0618     1.7122 H       
  55 H55            2.9003     3.8230     1.4819 H       
  56 H56            1.5328     5.0761     3.9078 H       
  57 H57            2.3592     3.5000     3.8504 H       
  58 H58            4.4890     4.6518     3.2754 H       
  59 H59            2.8235     7.1776     3.6815 H       
  60 H60            4.5895     7.1315     3.4593 H       
  61 H61            4.3260     6.1378     1.2275 H       
  62 H62            3.3405     7.6201     1.3210 H       
  63 H63            5.7165     4.0996     5.1382 H       
  64 H64            6.0896     4.1318     7.5690 H       
  65 H65            2.4834     6.3999     8.0719 H       
  66 H66            2.1344     6.3628     5.6376 H       
@<TRIPOS>BOND
   1    1    2 1
   2    1    8 2
   3    1    9 am
   4    2    3 ar
   5    2    7 ar
   6    3    4 ar
   7    3   37 1
   8    4    5 ar
   9    4   38 1
  10    5    6 ar
  11    5   10 1
  12    6    7 ar
  13    7   39 1
  14    9   15 1
  15    9   40 1
  16   10   11 1
  17   10   41 1
  18   11   12 1
  19   11   13 1
  20   11   42 1
  21   12   43 1
  22   12   44 1
  23   12   45 1
  24   13   46 1
  25   13   47 1
  26   13   48 1
  27   14   15 ar
  28   14   19 ar
  29   14   20 1
  30   15   16 ar
  31   16   17 ar
  32   16   49 1
  33   17   18 ar
  34   17   21 1
  35   18   19 ar
  36   18   50 1
  37   20   51 1
  38   20   52 1
  39   20   53 1
  40   21   22 2
  41   21   23 am
  42   23   24 1
  43   23   28 1
  44   24   25 1
  45   24   54 1
  46   24   55 1
  47   25   26 1
  48   25   56 1
  49   25   57 1
  50   26   27 1
  51   26   29 1
  52   26   58 1
  53   27   28 1
  54   27   59 1
  55   27   60 1
  56   28   61 1
  57   28   62 1
  58   29   30 ar
  59   29   34 ar
  60   30   31 ar
  61   30   63 1
  62   31   32 ar
  63   31   64 1
  64   32   33 ar
  65   32   35 1
  66   33   34 ar
  67   33   65 1
  68   34   66 1
  69   35   36 3

#	End of record

