#	Name: ASD03081356
#	Creating user name:	WinNT
#	Creation time:	15. 06. 2019 20:27

#	Modifying user name:	WinNT
#	Modification time:	15. 06. 2019 20:27

#	Program:	/corina/corina34_cracker 3.40 0067  02.08.2006

@<TRIPOS>MOLECULE
ASD03081356
  27   29    0    0    0
SMALL
NO_CHARGES


@<TRIPOS>ATOM
   1 O1            -0.0162     1.3446     0.0094 O.3     
   2 C2             0.0021    -0.0041     0.0020 C.2     
   3 N3             1.2605    -0.3807    -0.0120 N.2     
   4 N4             2.0176     0.6595    -0.0137 N.2     
   5 C5             1.2717     1.7419    -0.0007 C.2     
   6 C6             0.8534     4.2025     0.0149 C.ar    
   7 C7             1.7562     3.1376     0.0014 C.ar    
   8 C8             3.1285     3.4149    -0.0097 C.ar    
   9 C9             3.5300     4.7393    -0.0066 C.ar    
  10 C10            2.5723     5.7371     0.0071 C.ar    
  11 N11            1.2853     5.4463     0.0173 N.ar    
  12 C12           -1.1768    -0.8943     0.0092 C.ar    
  13 C13           -1.0084    -2.2814     0.0001 C.ar    
  14 N14           -2.4039    -0.3782     0.0300 N.ar    
  15 N15           -2.0653    -3.0712     0.0065 N.ar    
  16 C16           -3.2815    -2.5520     0.0217 C.ar    
  17 C17           -3.4536    -1.1780     0.0363 C.ar    
  18 C18           -4.4847    -3.4592     0.0290 C.3     
  19 H19           -0.2083     4.0044     0.0191 H       
  20 H20            3.8550     2.6159    -0.0199 H       
  21 H21            4.5802     4.9910    -0.0146 H       
  22 H22            2.8831     6.7715     0.0098 H       
  23 H23           -0.0154    -2.7059    -0.0126 H       
  24 H24           -4.4493    -0.7600     0.0531 H       
  25 H25           -4.7644    -3.6835     1.0583 H       
  26 H26           -5.3158    -2.9646    -0.4738 H       
  27 H27           -4.2443    -4.3858    -0.4923 H       
@<TRIPOS>BOND
   1    1    2 1
   2    1    5 1
   3    2    3 2
   4    2   12 1
   5    3    4 1
   6    4    5 2
   7    5    7 1
   8    6    7 ar
   9    6   11 ar
  10    6   19 1
  11    7    8 ar
  12    8    9 ar
  13    8   20 1
  14    9   10 ar
  15    9   21 1
  16   10   11 ar
  17   10   22 1
  18   12   13 ar
  19   12   14 ar
  20   13   15 ar
  21   13   23 1
  22   14   17 ar
  23   15   16 ar
  24   16   17 ar
  25   16   18 1
  26   17   24 1
  27   18   25 1
  28   18   26 1
  29   18   27 1

#	End of record

