#	Name: ASD02030777
#	Creating user name:	WinNT
#	Creation time:	15. 06. 2019 20:16

#	Modifying user name:	WinNT
#	Modification time:	15. 06. 2019 20:16

#	Program:	/corina/corina34_cracker 3.40 0067  02.08.2006

@<TRIPOS>MOLECULE
ASD02030777
  38   41    0    0    0
SMALL
NO_CHARGES


@<TRIPOS>ATOM
   1 F1            -0.3204     0.2444    -0.6503 F       
   2 C2            -0.3612     1.6419    -0.5990 C.3     
   3 F3             0.9378     2.1505    -0.7037 F       
   4 F4            -1.1379     2.1250    -1.6575 F       
   5 C5            -0.9678     2.0790     0.7095 C.2     
   6 C6            -1.2669     3.3953     1.0754 C.2     
   7 C7            -1.7969     3.3707     2.3218 C.2     
   8 Cl8           -2.3359     4.7469     3.2326 Cl      
   9 N9            -1.8311     2.0840     2.7284 N.pl3   
  10 C10           -2.3306     1.6006     4.0179 C.3     
  11 C11           -3.8016     1.2936     3.9037 C.2     
  12 C12           -4.2188     0.0039     3.6379 C.2     
  13 C13           -5.5903    -0.2567     3.5368 C.2     
  14 O14           -5.9912    -1.3860     3.3031 O.2     
  15 N15           -6.4629     0.7602     3.7023 N.am    
  16 C16           -5.9993     2.0195     3.9636 C.2     
  17 C17           -6.9131     3.0755     4.1351 C.2     
  18 C18           -8.2496     2.8272     4.0391 C.2     
  19 C19           -8.6936     1.5246     3.7712 C.2     
  20 C20           -7.8005     0.5229     3.6071 C.2     
  21 C21           -8.2909    -0.8724     3.3180 C.3     
  22 H22           -7.9569    -1.3019     2.3735 H       
  23 C23           -9.6924    -1.2441     3.8066 C.3     
  24 C24           -8.4594    -1.8223     4.5056 C.3     
  25 H25           -8.2155    -1.4379     5.4960 H       
  26 C26           -8.1584    -3.2462     4.2850 C.1     
  27 N27           -7.9261    -4.3451     4.1149 N.1     
  28 N28           -4.6931     2.2590     4.0638 N.2     
  29 N29           -1.3106     1.2920     1.6968 N.2     
  30 H30           -1.1039     4.2756     0.4714 H       
  31 H31           -1.7916     0.6963     4.3005 H       
  32 H32           -2.1774     2.3672     4.7775 H       
  33 H33           -3.4983    -0.7904     3.5096 H       
  34 H34           -6.5583     4.0744     4.3415 H       
  35 H35           -8.9621     3.6284     4.1690 H       
  36 H36           -9.7514     1.3213     3.6939 H       
  37 H37          -10.2597    -0.4794     4.3371 H       
  38 H38          -10.2802    -1.9184     3.1837 H       
@<TRIPOS>BOND
   1    1    2 1
   2    2    3 1
   3    2    4 1
   4    2    5 1
   5    5   29 2
   6    5    6 1
   7    6    7 2
   8    6   30 1
   9    7    8 1
  10    7    9 1
  11    9   10 1
  12    9   29 1
  13   10   11 1
  14   10   31 1
  15   10   32 1
  16   11   28 1
  17   11   12 2
  18   12   13 1
  19   12   33 1
  20   13   14 2
  21   13   15 am
  22   15   20 1
  23   15   16 1
  24   16   17 1
  25   16   28 2
  26   17   18 2
  27   17   34 1
  28   18   19 1
  29   18   35 1
  30   19   20 2
  31   19   36 1
  32   20   21 1
  33   21   22 1
  34   21   24 1
  35   21   23 1
  36   23   24 1
  37   23   37 1
  38   23   38 1
  39   24   25 1
  40   24   26 1
  41   26   27 3

#	End of record

