#	Name: ASD01560007
#	Creating user name:	WinNT
#	Creation time:	15. 06. 2019 19:22

#	Modifying user name:	WinNT
#	Modification time:	15. 06. 2019 19:22

#	Program:	/corina/corina34_cracker 3.40 0067  02.08.2006

@<TRIPOS>MOLECULE
ASD01560007
  77   83    0    0    0
SMALL
NO_CHARGES


@<TRIPOS>ATOM
   1 C1             0.1762     2.1635     0.1446 C.3     
   2 C2             1.6535     2.6097     0.0222 C.3     
   3 C3             1.8771     2.7640    -1.4947 C.3     
   4 O4             0.6531     2.3872    -2.1475 O.3     
   5 C5            -0.4171     2.6300    -1.2092 C.3     
   6 C6             3.0132     1.8455    -1.9492 C.3     
   7 O7             3.2911     2.0797    -3.3312 O.3     
   8 C8             4.4202     1.3580    -3.8275 C.3     
   9 C9             5.6724     1.8616    -3.1571 C.ar    
  10 C10            4.2477    -0.1096    -3.5320 C.ar    
  11 C11            4.5312     1.5610    -5.3166 C.ar    
  12 C12            3.4390     2.0078    -6.0366 C.ar    
  13 C13            3.5408     2.1939    -7.4025 C.ar    
  14 C14            4.7350     1.9338    -8.0484 C.ar    
  15 C15            5.8275     1.4879    -7.3283 C.ar    
  16 C16            5.7269     1.3059    -5.9617 C.ar    
  17 C17            5.7002     3.1299    -2.6079 C.ar    
  18 C18            6.8489     3.5918    -1.9931 C.ar    
  19 C19            7.9696     2.7853    -1.9269 C.ar    
  20 C20            7.9415     1.5166    -2.4753 C.ar    
  21 C21            6.7915     1.0531    -3.0864 C.ar    
  22 C22            3.8594    -0.9760    -4.5368 C.ar    
  23 C23            3.7011    -2.3222    -4.2658 C.ar    
  24 C24            3.9316    -2.8022    -2.9901 C.ar    
  25 C25            4.3208    -1.9360    -1.9855 C.ar    
  26 C26            4.4833    -0.5905    -2.2576 C.ar    
  27 O27            2.5238     1.6103     0.5569 O.3     
  28 O28            0.0818     0.7441     0.2807 O.3     
  29 N29           -1.5977     1.8351    -1.5564 N.pl3   
  30 C30           -2.8911     2.1136    -1.2089 C.2     
  31 C31           -3.6691     1.0885    -1.7557 C.2     
  32 N32           -2.8289     0.2461    -2.4007 N.2     
  33 C33           -1.6087     0.6862    -2.2895 C.2     
  34 N34           -3.4828     3.0926    -0.5102 N.2     
  35 C35           -4.7736     3.1090    -0.3292 C.2     
  36 N36           -5.5861     2.1455    -0.8320 N.am    
  37 C37           -5.0708     1.1221    -1.5492 C.2     
  38 O38           -5.7920     0.2517    -2.0055 O.2     
  39 C39           -7.0303     2.2147    -0.5961 C.3     
  40 C40           -7.6840     2.9944    -1.7077 C.ar    
  41 C41           -8.1339     2.3399    -2.8391 C.ar    
  42 C42           -8.7336     3.0550    -3.8589 C.ar    
  43 C43           -8.8837     4.4246    -3.7470 C.ar    
  44 C44           -8.4347     5.0790    -2.6152 C.ar    
  45 C45           -7.8389     4.3633    -1.5935 C.ar    
  46 H46           -0.3141     2.6658     0.9785 H       
  47 H47            1.8082     3.5609     0.5314 H       
  48 H48            2.1189     3.8004    -1.7301 H       
  49 H49           -0.6641     3.6911    -1.1748 H       
  50 H50            3.9059     2.0525    -1.3589 H       
  51 H51            2.7179     0.8057    -1.8091 H       
  52 H52            2.5060     2.2110    -5.5320 H       
  53 H53            2.6873     2.5423    -7.9652 H       
  54 H54            4.8143     2.0785    -9.1158 H       
  55 H55            6.7604     1.2843    -7.8330 H       
  56 H56            6.5804     0.9576    -5.3990 H       
  57 H57            4.8246     3.7600    -2.6596 H       
  58 H58            6.8708     4.5829    -1.5646 H       
  59 H59            8.8673     3.1464    -1.4472 H       
  60 H60            8.8172     0.8866    -2.4239 H       
  61 H61            6.7695     0.0619    -3.5148 H       
  62 H62            3.6793    -0.6009    -5.5335 H       
  63 H63            3.3970    -2.9989    -5.0506 H       
  64 H64            3.8072    -3.8539    -2.7782 H       
  65 H65            4.5006    -2.3110    -0.9888 H       
  66 H66            4.7874     0.0862    -1.4727 H       
  67 H67            2.3858     1.4307     1.4970 H       
  68 H68            0.5188     0.3947     1.0694 H       
  69 H69           -0.7356     0.2088    -2.7091 H       
  70 H70           -5.2109     3.9160     0.2400 H       
  71 H71           -7.4427     1.2061    -0.5684 H       
  72 H72           -7.2196     2.7109     0.3558 H       
  73 H73           -8.0166     1.2698    -2.9266 H       
  74 H74           -9.0844     2.5438    -4.7431 H       
  75 H75           -9.3516     4.9835    -4.5440 H       
  76 H76           -8.5517     6.1491    -2.5279 H       
  77 H77           -7.4881     4.8745    -0.7093 H       
@<TRIPOS>BOND
   1    1   28 1
   2    1    2 1
   3    1    5 1
   4    1   46 1
   5    2   27 1
   6    2    3 1
   7    2   47 1
   8    3    4 1
   9    3    6 1
  10    3   48 1
  11    4    5 1
  12    5   29 1
  13    5   49 1
  14    6    7 1
  15    6   50 1
  16    6   51 1
  17    7    8 1
  18    8    9 1
  19    8   10 1
  20    8   11 1
  21    9   17 ar
  22    9   21 ar
  23   10   22 ar
  24   10   26 ar
  25   11   12 ar
  26   11   16 ar
  27   12   13 ar
  28   12   52 1
  29   13   14 ar
  30   13   53 1
  31   14   15 ar
  32   14   54 1
  33   15   16 ar
  34   15   55 1
  35   16   56 1
  36   17   18 ar
  37   17   57 1
  38   18   19 ar
  39   18   58 1
  40   19   20 ar
  41   19   59 1
  42   20   21 ar
  43   20   60 1
  44   21   61 1
  45   22   23 ar
  46   22   62 1
  47   23   24 ar
  48   23   63 1
  49   24   25 ar
  50   24   64 1
  51   25   26 ar
  52   25   65 1
  53   26   66 1
  54   27   67 1
  55   28   68 1
  56   29   30 1
  57   29   33 1
  58   30   31 2
  59   30   34 1
  60   31   32 1
  61   31   37 1
  62   32   33 2
  63   33   69 1
  64   34   35 2
  65   35   36 1
  66   35   70 1
  67   36   37 am
  68   36   39 1
  69   37   38 2
  70   39   40 1
  71   39   71 1
  72   39   72 1
  73   40   41 ar
  74   40   45 ar
  75   41   42 ar
  76   41   73 1
  77   42   43 ar
  78   42   74 1
  79   43   44 ar
  80   43   75 1
  81   44   45 ar
  82   44   76 1
  83   45   77 1

#	End of record

