#	Name: ASD00071034
#	Creating user name:	WinNT
#	Creation time:	15. 06. 2019 18:30

#	Modifying user name:	WinNT
#	Modification time:	15. 06. 2019 18:30

#	Program:	/corina/corina34_cracker 3.40 0067  02.08.2006

@<TRIPOS>MOLECULE
ASD00071034
  36   38    0    0    0
SMALL
NO_CHARGES


@<TRIPOS>ATOM
   1 N1             1.8359     1.2411    -1.2023 N.ar    
   2 C2             1.6414    -0.0616    -1.1896 C.ar    
   3 C3             1.3755    -0.7522     0.0017 C.ar    
   4 C4             1.3144    -0.0729     1.1808 C.ar    
   5 C5             1.5238     1.3214     1.1606 C.ar    
   6 C6             1.4752     2.0817     2.3390 C.ar    
   7 C7             1.6829     3.4267     2.2823 C.ar    
   8 C8             1.9435     4.0586     1.0677 C.ar    
   9 C9             1.9975     3.3497    -0.0951 C.ar    
  10 C10            1.7879     1.9610    -0.0752 C.ar    
  11 N11            1.7006    -0.7667    -2.3823 N.pl3   
  12 C12            1.1573    -2.2431    -0.0227 C.3     
  13 C13            1.0272    -2.7549     1.3888 C.ar    
  14 C14           -0.2224    -2.8654     1.9731 C.ar    
  15 C15           -0.3411    -3.3353     3.2703 C.ar    
  16 C16            0.7876    -3.6945     3.9833 C.ar    
  17 C17            2.0366    -3.5860     3.4033 C.ar    
  18 C18            2.1589    -3.1209     2.1016 C.ar    
  19 O19            3.3868    -3.0187     1.5282 O.3     
  20 C20            4.5080    -3.4136     2.3212 C.3     
  21 F21           -1.3265    -2.5144     1.2782 F       
  22 Cl22           2.2025     5.7749     1.0354 Cl      
  23 H23            1.1103    -0.5889     2.1074 H       
  24 H24            1.2738     1.6030     3.2859 H       
  25 H25            1.6449     4.0108     3.1899 H       
  26 H26            2.2001     3.8540    -1.0284 H       
  27 H27            1.8022    -0.2918    -3.2220 H       
  28 H28            1.6404    -1.7348    -2.3769 H       
  29 H29            0.2456    -2.4679    -0.5762 H       
  30 H30            2.0054    -2.7265    -0.5077 H       
  31 H31           -1.3166    -3.4209     3.7257 H       
  32 H32            0.6927    -4.0601     4.9951 H       
  33 H33            2.9175    -3.8666     3.9615 H       
  34 H34            5.4243    -3.2825     1.7456 H       
  35 H35            4.5523    -2.7982     3.2198 H       
  36 H36            4.4027    -4.4612     2.6031 H       
@<TRIPOS>BOND
   1    1    2 ar
   2    1   10 ar
   3    2    3 ar
   4    2   11 1
   5    3    4 ar
   6    3   12 1
   7    4    5 ar
   8    4   23 1
   9    5    6 ar
  10    5   10 ar
  11    6    7 ar
  12    6   24 1
  13    7    8 ar
  14    7   25 1
  15    8    9 ar
  16    8   22 1
  17    9   10 ar
  18    9   26 1
  19   11   27 1
  20   11   28 1
  21   12   13 1
  22   12   29 1
  23   12   30 1
  24   13   14 ar
  25   13   18 ar
  26   14   15 ar
  27   14   21 1
  28   15   16 ar
  29   15   31 1
  30   16   17 ar
  31   16   32 1
  32   17   18 ar
  33   17   33 1
  34   18   19 1
  35   19   20 1
  36   20   34 1
  37   20   35 1
  38   20   36 1

#	End of record

