#	Name: ASD03320104
#	Creating user name:	WinNT
#	Creation time:	15. 06. 2019 20:36

#	Modifying user name:	WinNT
#	Modification time:	15. 06. 2019 20:36

#	Program:	/corina/corina34_cracker 3.40 0067  02.08.2006

@<TRIPOS>MOLECULE
ASD03320104
  52   55    0    0    0
SMALL
NO_CHARGES


@<TRIPOS>ATOM
   1 C1            -0.0248     1.3864    -0.0237 C.2     
   2 C2            -0.1090    -0.0867    -0.0187 C.ar    
   3 C3             1.0558    -0.8640    -0.0699 C.ar    
   4 C4             0.9239    -2.2497    -0.0623 C.ar    
   5 C5            -0.3640    -2.8111    -0.0040 C.ar    
   6 N6            -1.4379    -2.0373     0.0427 N.ar    
   7 C7            -1.3501    -0.7236     0.0430 C.ar    
   8 O8             1.0603     1.9332    -0.0725 O.2     
   9 N9            -1.1507     2.1259     0.0202 N.am    
  10 C10           -1.0693     3.5195     0.1359 C.ar    
  11 C11           -2.1008     4.3173    -0.3419 C.ar    
  12 C12           -2.0207     5.6907    -0.2285 C.ar    
  13 C13           -0.9080     6.2749     0.3644 C.ar    
  14 C14            0.1236     5.4764     0.8427 C.ar    
  15 C15            0.0404     4.1029     0.7336 C.ar    
  16 S16           -0.8051     8.0280     0.5089 S.3     
  17 C17            0.7935     8.2766     1.3294 C.3     
  18 F18            1.8135     7.7417     0.5353 F       
  19 F19            1.0152     9.6455     1.5137 F       
  20 F20            0.7847     7.6342     2.5722 F       
  21 N21            2.2493    -4.2721    -0.8290 N.pl3   
  22 N22            3.5364    -4.7743    -0.5983 N.2     
  23 C23            4.1593    -3.9624     0.2179 C.2     
  24 C24            3.3005    -2.9118     0.5417 C.2     
  25 C25            2.1200    -3.1181    -0.1153 C.2     
  26 N26           -0.5109    -4.1859     0.0042 N.3     
  27 C27           -1.8339    -4.5807    -0.5260 C.3     
  28 C28           -2.2754    -5.8356     0.2498 C.3     
  29 C29           -1.1406    -6.1025     1.2651 C.3     
  30 C30           -0.4543    -4.7190     1.3894 C.3     
  31 C31           -2.4259    -7.0233    -0.7028 C.3     
  32 O32           -2.9466    -8.1451     0.0130 O.3     
  33 H33            2.0301    -0.4002    -0.1144 H       
  34 H34           -2.2513    -0.1300     0.0868 H       
  35 H35           -2.0174     1.6931    -0.0284 H       
  36 H36           -2.9656     3.8631    -0.8027 H       
  37 H37           -2.8225     6.3110    -0.6007 H       
  38 H38            0.9885     5.9302     1.3036 H       
  39 H39            0.8402     3.4819     1.1094 H       
  40 H40            1.5729    -4.6717    -1.3980 H       
  41 H41            5.1691    -4.0855     0.5805 H       
  42 H42            3.5279    -2.0829     1.1957 H       
  43 H43           -2.5520    -3.7757    -0.3696 H       
  44 H44           -1.7547    -4.8099    -1.5887 H       
  45 H45           -3.2135    -5.6471     0.7718 H       
  46 H46           -1.5485    -6.4184     2.2253 H       
  47 H47           -0.4434    -6.8455     0.8779 H       
  48 H48            0.5794    -4.8303     1.7169 H       
  49 H49           -1.0080    -4.0749     2.0725 H       
  50 H50           -3.1094    -6.7579    -1.5093 H       
  51 H51           -1.4524    -7.2792    -1.1210 H       
  52 H52           -3.0683    -8.9360    -0.5298 H       
@<TRIPOS>BOND
   1    1    2 1
   2    1    8 2
   3    1    9 am
   4    2    3 ar
   5    2    7 ar
   6    3    4 ar
   7    3   33 1
   8    4    5 ar
   9    4   25 1
  10    5    6 ar
  11    5   26 1
  12    6    7 ar
  13    7   34 1
  14    9   10 1
  15    9   35 1
  16   10   11 ar
  17   10   15 ar
  18   11   12 ar
  19   11   36 1
  20   12   13 ar
  21   12   37 1
  22   13   14 ar
  23   13   16 1
  24   14   15 ar
  25   14   38 1
  26   15   39 1
  27   16   17 1
  28   17   18 1
  29   17   19 1
  30   17   20 1
  31   21   22 1
  32   21   25 1
  33   21   40 1
  34   22   23 2
  35   23   24 1
  36   23   41 1
  37   24   25 2
  38   24   42 1
  39   26   27 1
  40   26   30 1
  41   27   28 1
  42   27   43 1
  43   27   44 1
  44   28   29 1
  45   28   31 1
  46   28   45 1
  47   29   30 1
  48   29   46 1
  49   29   47 1
  50   30   48 1
  51   30   49 1
  52   31   32 1
  53   31   50 1
  54   31   51 1
  55   32   52 1

#	End of record

