#	Name: ASD01870428
#	Creating user name:	WinNT
#	Creation time:	15. 06. 2019 19:39

#	Modifying user name:	WinNT
#	Modification time:	15. 06. 2019 19:39

#	Program:	/corina/corina34_cracker 3.40 0067  02.08.2006

@<TRIPOS>MOLECULE
ASD01870428
  59   63    0    0    0
SMALL
NO_CHARGES


@<TRIPOS>ATOM
   1 N1             0.1649     1.5263     0.3009 N.am    
   2 C2             0.1675     0.1796     0.2475 C.2     
   3 C3            -1.1361    -0.5755     0.2103 C.3     
   4 O4             1.2190    -0.4245     0.2295 O.2     
   5 C5            -0.9653    -2.1043     0.1506 C.3     
   6 N6            -2.0685    -2.1651     1.1290 N.am    
   7 C7            -1.7622    -0.8000     1.5987 C.3     
   8 S8            -3.1969    -3.3067     1.5363 S.o2    
   9 C9            -2.4980    -4.2983     2.8141 C.ar    
  10 C10           -1.7659    -5.4258     2.4915 C.ar    
  11 O11           -4.2844    -2.6046     2.1225 O.2     
  12 O12           -3.3384    -4.1530     0.4036 O.2     
  13 C13           -2.6771    -3.9455     4.1380 C.ar    
  14 C14           -2.1281    -4.7228     5.1481 C.ar    
  15 C15           -1.3998    -5.8618     4.8267 C.ar    
  16 C16           -1.2185    -6.2057     3.4907 C.ar    
  17 C17            1.4257     2.2828     0.3380 C.3     
  18 C18            1.3803     3.3583    -0.7526 C.3     
  19 N19            0.1654     4.1674    -0.5877 N.3     
  20 C20           -1.0448     3.3541    -0.7663 C.3     
  21 C21           -1.0988     2.2787     0.3175 C.3     
  22 C22            0.1684     5.2546    -1.4566 C.ar    
  23 C23           -0.8917     6.1609    -1.4724 C.ar    
  24 C24            1.2342     5.4694    -2.3302 C.ar    
  25 C25            1.1987     6.5584    -3.1753 C.ar    
  26 N26            0.1743     7.3907    -3.1640 N.ar    
  27 C27           -0.8503     7.2249    -2.3485 C.ar    
  28 O28           -2.3141    -4.3421     6.4420 O.3     
  29 C29           -2.0268    -5.3197     7.4473 C.3     
  30 C30           -0.6891    -5.9820     7.0929 C.3     
  31 N31           -0.8379    -6.6810     5.8111 N.3     
  32 C32            0.4454    -7.2380     5.3631 C.3     
  33 H33           -1.8338    -0.1827    -0.5293 H       
  34 H34           -1.2134    -2.5366    -0.8187 H       
  35 H35           -0.0107    -2.4554     0.5426 H       
  36 H36           -1.0417    -0.7679     2.4159 H       
  37 H37           -2.6466    -0.1908     1.7854 H       
  38 H38           -1.6223    -5.6973     1.4561 H       
  39 H39           -3.2458    -3.0618     4.3875 H       
  40 H40           -0.6512    -7.0883     3.2345 H       
  41 H41            1.5407     2.7552     1.3135 H       
  42 H42            2.2625     1.6092     0.1533 H       
  43 H43            2.2581     3.9989    -0.6685 H       
  44 H44            1.3697     2.8820    -1.7330 H       
  45 H45           -1.9258     3.9917    -0.6921 H       
  46 H46           -1.0216     2.8779    -1.7465 H       
  47 H47           -1.9316     1.6032     0.1220 H       
  48 H48           -1.2257     2.7481     1.2931 H       
  49 H49           -1.7332     6.0309    -0.8081 H       
  50 H50            2.0756     4.7925    -2.3443 H       
  51 H51            2.0198     6.7328    -3.8549 H       
  52 H52           -1.6689     7.9291    -2.3710 H       
  53 H53           -1.9521    -4.8360     8.4213 H       
  54 H54           -2.8163    -6.0709     7.4675 H       
  55 H55            0.0851    -5.2197     7.0061 H       
  56 H56           -0.4173    -6.6965     7.8699 H       
  57 H57            0.8761    -7.8447     6.1596 H       
  58 H58            0.2844    -7.8578     4.4809 H       
  59 H59            1.1281    -6.4249     5.1161 H       
@<TRIPOS>BOND
   1    1    2 am
   2    1   17 1
   3    1   21 1
   4    2    3 1
   5    2    4 2
   6    3    5 1
   7    3    7 1
   8    3   33 1
   9    5    6 1
  10    5   34 1
  11    5   35 1
  12    6    7 1
  13    6    8 am
  14    7   36 1
  15    7   37 1
  16    8    9 1
  17    8   11 2
  18    8   12 2
  19    9   13 ar
  20    9   10 ar
  21   10   16 ar
  22   10   38 1
  23   13   14 ar
  24   13   39 1
  25   14   15 ar
  26   14   28 1
  27   15   16 ar
  28   15   31 1
  29   16   40 1
  30   17   18 1
  31   17   41 1
  32   17   42 1
  33   18   19 1
  34   18   43 1
  35   18   44 1
  36   19   20 1
  37   19   22 1
  38   20   21 1
  39   20   45 1
  40   20   46 1
  41   21   47 1
  42   21   48 1
  43   22   23 ar
  44   22   24 ar
  45   23   27 ar
  46   23   49 1
  47   24   25 ar
  48   24   50 1
  49   25   26 ar
  50   25   51 1
  51   26   27 ar
  52   27   52 1
  53   28   29 1
  54   29   30 1
  55   29   53 1
  56   29   54 1
  57   30   31 1
  58   30   55 1
  59   30   56 1
  60   31   32 1
  61   32   57 1
  62   32   58 1
  63   32   59 1

#	End of record

