#	Name: ASD01208987
#	Creating user name:	WinNT
#	Creation time:	15. 06. 2019 19:10

#	Modifying user name:	WinNT
#	Modification time:	15. 06. 2019 19:10

#	Program:	/corina/corina34_cracker 3.40 0067  02.08.2006

@<TRIPOS>MOLECULE
ASD01208987
  47   50    0    0    0
SMALL
NO_CHARGES


@<TRIPOS>ATOM
   1 C1            -1.8188    -0.3782     3.3318 C.3     
   2 C2            -0.9258     0.2225     2.2263 C.3     
   3 C3            -1.1050    -0.5444     0.9146 C.3     
   4 C4            -2.5153    -0.3043     0.3720 C.3     
   5 C5            -2.6347    -0.9109    -1.0023 C.2     
   6 N6            -1.8987    -0.4230    -2.0206 N.am    
   7 C7            -2.0844    -0.9118    -3.3096 C.2     
   8 N8            -3.4950    -0.9255     1.2667 N.pl3   
   9 C9            -3.8300    -2.2324     1.2925 C.2     
  10 C10           -4.7652    -2.3996     2.2562 C.2     
  11 C11           -5.0100    -1.1520     2.8393 C.2     
  12 N12           -4.2451    -0.2686     2.2508 N.2     
  13 O13           -3.3932    -1.8381    -1.1922 O.2     
  14 S14           -1.2051    -0.3795    -4.7402 S.3     
  15 C15           -2.1216    -1.5195    -5.7233 C.2     
  16 C16           -2.9704    -2.1712    -4.9253 C.2     
  17 N17           -2.9291    -1.8365    -3.6492 N.2     
  18 F18           -1.9884    -1.7021    -7.0552 F       
  19 S19           -5.5379    -3.9201     2.6983 S.o2    
  20 O20           -6.7908    -3.5308     3.2441 O.2     
  21 O21           -5.4659    -4.7063     1.5168 O.2     
  22 C22           -4.4686    -4.6125     3.9898 C.3     
  23 C23           -4.8064    -6.0102     4.5124 C.3     
  24 C24           -3.5863    -5.8042     3.6126 C.3     
  25 C25            0.5124     0.0373     2.7733 C.3     
  26 C26            0.3256     0.2951     4.2892 C.3     
  27 C27           -1.0186    -0.3307     4.6167 C.2     
  28 O28           -1.3822    -0.7185     5.7010 O.2     
  29 H29           -2.7287     0.2125     3.4376 H       
  30 H30           -2.0705    -1.4102     3.0875 H       
  31 H31           -1.1509     1.2796     2.0845 H       
  32 H32           -0.3717    -0.1963     0.1871 H       
  33 H33           -0.9612    -1.6098     1.0941 H       
  34 H34           -2.7046     0.7675     0.3138 H       
  35 H35           -1.2395     0.2689    -1.8545 H       
  36 H36           -3.4247    -3.0063     0.6575 H       
  37 H37           -5.7067    -0.9531     3.6402 H       
  38 H38           -3.6450    -2.9271    -5.2994 H       
  39 H39           -4.0652    -3.8927     4.7020 H       
  40 H40           -4.6250    -6.2101     5.5685 H       
  41 H41           -5.6712    -6.5137     4.0803 H       
  42 H42           -3.6483    -6.1722     2.5885 H       
  43 H43           -2.6021    -5.8686     4.0767 H       
  44 H44            0.8678    -0.9773     2.5936 H       
  45 H45            1.1907     0.7700     2.3362 H       
  46 H46            1.1195    -0.1886     4.8582 H       
  47 H47            0.3071     1.3655     4.4939 H       
@<TRIPOS>BOND
   1    1    2 1
   2    1   27 1
   3    1   29 1
   4    1   30 1
   5    2    3 1
   6    2   25 1
   7    2   31 1
   8    3    4 1
   9    3   32 1
  10    3   33 1
  11    4    5 1
  12    4    8 1
  13    4   34 1
  14    5    6 am
  15    5   13 2
  16    6    7 1
  17    6   35 1
  18    7   14 1
  19    7   17 2
  20    8    9 1
  21    8   12 1
  22    9   10 2
  23    9   36 1
  24   10   11 1
  25   10   19 1
  26   11   12 2
  27   11   37 1
  28   14   15 1
  29   15   16 2
  30   15   18 1
  31   16   17 1
  32   16   38 1
  33   19   20 2
  34   19   21 2
  35   19   22 1
  36   22   23 1
  37   22   24 1
  38   22   39 1
  39   23   24 1
  40   23   40 1
  41   23   41 1
  42   24   42 1
  43   24   43 1
  44   25   26 1
  45   25   44 1
  46   25   45 1
  47   26   27 1
  48   26   46 1
  49   26   47 1
  50   27   28 2

#	End of record

