#	Name: ASD00990059
#	Creating user name:	WinNT
#	Creation time:	15. 06. 2019 18:54

#	Modifying user name:	WinNT
#	Modification time:	15. 06. 2019 18:54

#	Program:	/corina/corina34_cracker 3.40 0067  02.08.2006

@<TRIPOS>MOLECULE
ASD00990059
  38   39    0    0    0
SMALL
NO_CHARGES


@<TRIPOS>ATOM
   1 C1            -0.0170     1.4004     0.0097 C.ar    
   2 C2             0.0021    -0.0041     0.0020 C.ar    
   3 C3            -1.1915    -0.7133     0.0096 C.ar    
   4 C4            -2.3918    -0.0362     0.0247 C.ar    
   5 C5            -2.4170     1.3514     0.0319 C.ar    
   6 C6            -1.2436     2.0719     0.0301 C.ar    
   7 N7             1.2764     1.8141    -0.0004 N.2     
   8 C8             2.0660     0.7802    -0.0135 C.2     
   9 N9             1.3342    -0.3668    -0.0127 N.pl3   
  10 C10            3.5716     0.8438    -0.0283 C.3     
  11 N11            4.0405     0.9922    -1.4082 N.am    
  12 C12            4.2229     2.3285    -1.9803 C.3     
  13 Cl13          -1.2867     3.8074     0.0398 Cl      
  14 O14            4.7352     0.0356    -3.4197 O.3     
  15 C15            4.9994    -1.1847    -4.1610 C.3     
  16 C16            3.7176    -2.0153    -4.2494 C.3     
  17 C17            5.4767    -0.8317    -5.5711 C.3     
  18 C18            6.0824    -1.9929    -3.4434 C.3     
  19 C19            4.3043    -0.1007    -2.1515 C.2     
  20 O20            4.1530    -1.2091    -1.6771 O.2     
  21 H21           -1.1794    -1.7932     0.0033 H       
  22 H22           -3.3194    -0.5893     0.0306 H       
  23 H23           -3.3642     1.8701     0.0430 H       
  24 H24            1.6836    -1.2716    -0.0206 H       
  25 H25            3.9050     1.6970     0.5625 H       
  26 H26            3.9782    -0.0737     0.3970 H       
  27 H27            5.2407     2.6692    -1.7906 H       
  28 H28            4.0468     2.2907    -3.0553 H       
  29 H29            3.5167     3.0200    -1.5205 H       
  30 H30            2.9461    -1.4395    -4.7606 H       
  31 H31            3.9159    -2.9314    -4.8058 H       
  32 H32            3.3776    -2.2668    -3.2448 H       
  33 H33            6.3899    -0.2399    -5.5081 H       
  34 H34            5.6751    -1.7477    -6.1275 H       
  35 H35            4.7052    -0.2559    -6.0823 H       
  36 H36            5.7424    -2.2444    -2.4388 H       
  37 H37            6.2807    -2.9090    -3.9998 H       
  38 H38            6.9956    -1.4012    -3.3804 H       
@<TRIPOS>BOND
   1    1    2 ar
   2    1    7 1
   3    1    6 ar
   4    2    3 ar
   5    2    9 1
   6    3    4 ar
   7    3   21 1
   8    4    5 ar
   9    4   22 1
  10    5    6 ar
  11    5   23 1
  12    6   13 1
  13    7    8 2
  14    8    9 1
  15    8   10 1
  16    9   24 1
  17   10   11 1
  18   10   25 1
  19   10   26 1
  20   11   12 1
  21   11   19 am
  22   12   27 1
  23   12   28 1
  24   12   29 1
  25   14   15 1
  26   14   19 1
  27   15   16 1
  28   15   17 1
  29   15   18 1
  30   16   30 1
  31   16   31 1
  32   16   32 1
  33   17   33 1
  34   17   34 1
  35   17   35 1
  36   18   36 1
  37   18   37 1
  38   18   38 1
  39   19   20 2

#	End of record

