#	Name: ASD02908005
#	Creating user name:	WinNT
#	Creation time:	15. 06. 2019 20:26

#	Modifying user name:	WinNT
#	Modification time:	15. 06. 2019 20:26

#	Program:	/corina/corina34_cracker 3.40 0067  02.08.2006

@<TRIPOS>MOLECULE
ASD02908005
  19   18    0    0    0
SMALL
NO_CHARGES


@<TRIPOS>ATOM
   1 P1            -0.0180     1.4758     0.0102 P.3     
   2 O2             0.0021    -0.0041     0.0020 O.2     
   3 O3             1.4924     2.0330    -0.0013 O.3     
   4 O4            -0.7967     2.0091    -1.2942 O.3     
   5 O5            -0.7716     1.9950     1.3348 O.3     
   6 C6            -2.0945     1.5864     1.6883 C.3     
   7 C7            -2.5045     2.2631     2.9978 C.3     
   8 C8            -3.9633     1.9250     3.3117 C.3     
   9 O9            -4.3813     2.6490     4.4706 O.3     
  10 O10           -1.6683     1.7951     4.0579 O.3     
  11 H11            2.0070     1.7589    -0.7727 H       
  12 H12           -0.8486     2.9728    -1.3546 H       
  13 H13           -2.7873     1.8749     0.8978 H       
  14 H14           -2.1187     0.5041     1.8155 H       
  15 H15           -2.3951     3.3431     2.8985 H       
  16 H16           -4.5908     2.2017     2.4645 H       
  17 H17           -4.0561     0.8551     3.4986 H       
  18 H18           -5.2984     2.4830     4.7285 H       
  19 H19           -1.7149     0.8403     4.2034 H       
@<TRIPOS>BOND
   1    1    2 2
   2    1    3 1
   3    1    4 1
   4    1    5 1
   5    3   11 1
   6    4   12 1
   7    5    6 1
   8    6    7 1
   9    6   13 1
  10    6   14 1
  11    7    8 1
  12    7   10 1
  13    7   15 1
  14    8    9 1
  15    8   16 1
  16    8   17 1
  17    9   18 1
  18   10   19 1

#	End of record

