#	Name: ASD02500705
#	Creating user name:	WinNT
#	Creation time:	15. 06. 2019 20:23

#	Modifying user name:	WinNT
#	Modification time:	15. 06. 2019 20:23

#	Program:	/corina/corina34_cracker 3.40 0067  02.08.2006

@<TRIPOS>MOLECULE
ASD02500705
  72   77    0    0    0
SMALL
NO_CHARGES


@<TRIPOS>ATOM
   1 N1            -5.3525     5.5826    -1.1193 N.ar    
   2 C2            -6.3875     6.1484    -1.6909 C.ar    
   3 C3            -7.6748     6.0132    -1.1751 C.ar    
   4 C4            -7.8823     5.2749    -0.0450 C.ar    
   5 C5            -6.7684     4.6683     0.5659 C.ar    
   6 C6            -6.9037     3.8952     1.7298 C.ar    
   7 C7            -5.8016     3.3252     2.2909 C.ar    
   8 C8            -4.5404     3.4993     1.7254 C.ar    
   9 C9            -4.3730     4.2424     0.5974 C.ar    
  10 C10           -5.4865     4.8469    -0.0112 C.ar    
  11 S11           -2.7663     4.4469    -0.0965 S.o2    
  12 O12           -2.6116     5.8370    -0.3475 O.2     
  13 O13           -1.8771     3.7015     0.7237 O.2     
  14 N14           -2.7730     3.7025    -1.5758 N.am    
  15 C15           -2.9229     2.3202    -1.6592 C.ar    
  16 C16           -2.2324     1.6019    -2.6377 C.ar    
  17 C17           -2.3804     0.2325    -2.7210 C.ar    
  18 C18           -3.2224    -0.4329    -1.8243 C.ar    
  19 C19           -3.9106     0.2910    -0.8474 C.ar    
  20 C20           -3.7551     1.6573    -0.7648 C.ar    
  21 C21           -3.3840    -1.8968    -1.9099 C.2     
  22 O22           -3.4751    -2.4359    -2.9961 O.2     
  23 N23           -3.4307    -2.6366    -0.7844 N.am    
  24 C24           -3.4865    -4.1050    -0.8479 C.3     
  25 C25           -2.3899    -4.6735     0.0590 C.3     
  26 N26           -2.5291    -4.1043     1.4061 N.3     
  27 C27           -2.3330    -2.6486     1.3924 C.3     
  28 C28           -3.4211    -1.9973     0.5402 C.3     
  29 C29           -1.6065    -4.7510     2.3488 C.3     
  30 C30           -1.6189    -3.9912     3.6768 C.3     
  31 C31           -2.9741    -3.7699     4.3515 C.3     
  32 C32           -1.9834    -4.7779     4.9374 C.3     
  33 C33           -0.5884    -2.8999     3.8108 C.ar    
  34 C34            0.6365    -3.0248     3.1822 C.ar    
  35 C35            1.5817    -2.0237     3.3051 C.ar    
  36 C36            1.3020    -0.8975     4.0563 C.ar    
  37 C37            0.0769    -0.7721     4.6842 C.ar    
  38 C38           -0.8700    -1.7713     4.5576 C.ar    
  39 O39           -1.4146     2.2520    -3.5087 O.3     
  40 C40           -0.7397     1.4543    -4.4835 C.3     
  41 H41           -6.2386     6.7353    -2.5852 H       
  42 H42           -8.5078     6.4922    -1.6683 H       
  43 H43           -8.8733     5.1599     0.3687 H       
  44 H44           -7.8761     3.7536     2.1779 H       
  45 H45           -5.9066     2.7305     3.1863 H       
  46 H46           -3.6816     3.0375     2.1896 H       
  47 H47           -2.6724     4.2291    -2.3842 H       
  48 H48           -1.8474    -0.3243    -3.4775 H       
  49 H49           -4.5612    -0.2212    -0.1541 H       
  50 H50           -4.2843     2.2150    -0.0063 H       
  51 H51           -4.4616    -4.4496    -0.5036 H       
  52 H52           -3.3201    -4.4337    -1.8738 H       
  53 H53           -2.4865    -5.7580     0.1106 H       
  54 H54           -1.4119    -4.4139    -0.3462 H       
  55 H55           -2.3884    -2.2645     2.4110 H       
  56 H56           -1.3558    -2.4172     0.9686 H       
  57 H57           -3.2115    -0.9332     0.4316 H       
  58 H58           -4.3898    -2.1354     1.0205 H       
  59 H59           -1.9213    -5.7810     2.5165 H       
  60 H60           -0.5984    -4.7421     1.9344 H       
  61 H61           -3.1202    -2.8351     4.8926 H       
  62 H62           -3.8569    -4.1656     3.8493 H       
  63 H63           -2.2144    -5.8368     4.8206 H       
  64 H64           -1.4777    -4.5063     5.8640 H       
  65 H65            0.8550    -3.9047     2.5953 H       
  66 H66            2.5389    -2.1216     2.8146 H       
  67 H67            2.0408    -0.1156     4.1530 H       
  68 H68           -0.1415     0.1076     5.2713 H       
  69 H69           -1.8286    -1.6717     5.0451 H       
  70 H70           -0.1220     2.0950    -5.1128 H       
  71 H71           -0.1085     0.7221    -3.9800 H       
  72 H72           -1.4739     0.9373    -5.1014 H       
@<TRIPOS>BOND
   1    1    2 ar
   2    1   10 ar
   3    2    3 ar
   4    2   41 1
   5    3    4 ar
   6    3   42 1
   7    4    5 ar
   8    4   43 1
   9    5    6 ar
  10    5   10 ar
  11    6    7 ar
  12    6   44 1
  13    7    8 ar
  14    7   45 1
  15    8    9 ar
  16    8   46 1
  17    9   10 ar
  18    9   11 1
  19   11   12 2
  20   11   13 2
  21   11   14 am
  22   14   15 1
  23   14   47 1
  24   15   16 ar
  25   15   20 ar
  26   16   17 ar
  27   16   39 1
  28   17   18 ar
  29   17   48 1
  30   18   19 ar
  31   18   21 1
  32   19   20 ar
  33   19   49 1
  34   20   50 1
  35   21   22 2
  36   21   23 am
  37   23   24 1
  38   23   28 1
  39   24   25 1
  40   24   51 1
  41   24   52 1
  42   25   26 1
  43   25   53 1
  44   25   54 1
  45   26   27 1
  46   26   29 1
  47   27   28 1
  48   27   55 1
  49   27   56 1
  50   28   57 1
  51   28   58 1
  52   29   30 1
  53   29   59 1
  54   29   60 1
  55   30   31 1
  56   30   32 1
  57   30   33 1
  58   31   32 1
  59   31   61 1
  60   31   62 1
  61   32   63 1
  62   32   64 1
  63   33   34 ar
  64   33   38 ar
  65   34   35 ar
  66   34   65 1
  67   35   36 ar
  68   35   66 1
  69   36   37 ar
  70   36   67 1
  71   37   38 ar
  72   37   68 1
  73   38   69 1
  74   39   40 1
  75   40   70 1
  76   40   71 1
  77   40   72 1

#	End of record

