#	Name: ASD03331371
#	Creating user name:	WinNT
#	Creation time:	15. 06. 2019 20:39

#	Modifying user name:	WinNT
#	Modification time:	15. 06. 2019 20:39

#	Program:	/corina/corina34_cracker 3.40 0067  02.08.2006

@<TRIPOS>MOLECULE
ASD03331371
  27   29    0    0    0
SMALL
NO_CHARGES


@<TRIPOS>ATOM
   1 N1            -0.0170     1.3995     0.0097 N.2     
   2 N2             0.0021    -0.0041     0.0020 N.pl3   
   3 C3             1.2831    -0.4020    -0.0133 C.2     
   4 C4             2.0673     0.7072    -0.0135 C.2     
   5 C5             1.2309     1.8287     0.0001 C.2     
   6 C6             1.8419    -1.8032    -0.0301 C.3     
   7 C7             3.5748     0.6461    -0.0250 C.3     
   8 C8             3.9870    -0.7824     0.3599 C.3     
   9 O9             3.2251    -1.7237    -0.4002 O.3     
  10 C10            1.6687     3.2469     0.0025 C.ar    
  11 C11            0.9244     4.2088    -0.6775 C.ar    
  12 C12            1.3358     5.5277    -0.6725 C.ar    
  13 C13            2.4883     5.8935     0.0084 C.ar    
  14 C14            3.2294     4.9394     0.6847 C.ar    
  15 C15            2.8216     3.6206     0.6892 C.ar    
  16 F16            2.8883     7.1839     0.0111 F       
  17 F17            0.6158     6.4618    -1.3315 F       
  18 H18           -0.7750    -0.5846     0.0072 H       
  19 H19            1.7505    -2.2482     0.9607 H       
  20 H20            1.2999    -2.4074    -0.7576 H       
  21 H21            3.9465     0.8820    -1.0221 H       
  22 H22            3.9788     1.3548     0.6980 H       
  23 H23            5.0479    -0.9223     0.1524 H       
  24 H24            3.8018    -0.9398     1.4225 H       
  25 H25            0.0277     3.9238    -1.2077 H       
  26 H26            4.1257     5.2283     1.2135 H       
  27 H27            3.3985     2.8784     1.2209 H       
@<TRIPOS>BOND
   1    1    2 1
   2    1    5 2
   3    2    3 1
   4    2   18 1
   5    3    4 2
   6    3    6 1
   7    4    5 1
   8    4    7 1
   9    5   10 1
  10    6    9 1
  11    6   19 1
  12    6   20 1
  13    7    8 1
  14    7   21 1
  15    7   22 1
  16    8    9 1
  17    8   23 1
  18    8   24 1
  19   10   11 ar
  20   10   15 ar
  21   11   12 ar
  22   11   25 1
  23   12   13 ar
  24   12   17 1
  25   13   14 ar
  26   13   16 1
  27   14   15 ar
  28   14   26 1
  29   15   27 1

#	End of record

