#	Name: ASD00170281
#	Creating user name:	WinNT
#	Creation time:	15. 06. 2019 18:31

#	Modifying user name:	WinNT
#	Modification time:	15. 06. 2019 18:31

#	Program:	/corina/corina34_cracker 3.40 0067  02.08.2006

@<TRIPOS>MOLECULE
ASD00170281
  44   47    0    0    0
SMALL
NO_CHARGES


@<TRIPOS>ATOM
   1 C1            -0.0044     1.3792    -0.0070 C.2     
   2 C2             0.0078     0.0052    -0.0012 C.2     
   3 C3            -1.3210    -0.5763     0.0266 C.2     
   4 C4            -2.2861     0.3505     0.0405 C.2     
   5 S5            -1.6026     1.9660     0.0270 S.3     
   6 C6             1.2341    -0.7893    -0.0217 C.2     
   7 C7             1.7818    -1.2736    -1.3107 C.ar    
   8 O8             1.8059    -1.0533     1.0202 O.2     
   9 N9             1.1228     2.1737    -0.0312 N.pl3   
  10 N10            1.0991    -1.0759    -2.4316 N.ar    
  11 C11            1.5497    -1.4899    -3.5962 C.ar    
  12 C12            2.7623    -2.1521    -3.6952 C.ar    
  13 C13            3.5082    -2.3797    -2.5487 C.ar    
  14 C14            3.0119    -1.9277    -1.3367 C.ar    
  15 C15           -1.6170    -2.0681     0.0397 C.3     
  16 C16           -3.0721    -2.2628     0.4775 C.3     
  17 N17           -3.9415    -1.3854    -0.3194 N.3     
  18 C18           -3.7662     0.0221     0.0686 C.3     
  19 C19           -5.3483    -1.7921    -0.2035 C.3     
  20 C20           -6.2286    -0.7383    -0.8244 C.ar    
  21 C21           -6.5576    -0.8145    -2.1649 C.ar    
  22 C22           -7.3651     0.1522    -2.7345 C.ar    
  23 C23           -7.8439     1.1948    -1.9635 C.ar    
  24 C24           -7.5157     1.2706    -0.6228 C.ar    
  25 C25           -6.7118     0.3015    -0.0522 C.ar    
  26 H26            2.0025     1.7695     0.0298 H       
  27 H27            1.0359     3.1367    -0.1091 H       
  28 H28            0.9661    -1.3113    -4.4872 H       
  29 H29            3.1231    -2.4882    -4.6561 H       
  30 H30            4.4567    -2.8938    -2.5999 H       
  31 H31            3.5665    -2.0878    -0.4239 H       
  32 H32           -1.4753    -2.4800    -0.9595 H       
  33 H33           -0.9512    -2.5690     0.7425 H       
  34 H34           -3.3629    -3.3017     0.3219 H       
  35 H35           -3.1711    -2.0112     1.5335 H       
  36 H36           -4.1564     0.1756     1.0747 H       
  37 H37           -4.2967     0.6643    -0.6344 H       
  38 H38           -5.4963    -2.7400    -0.7207 H       
  39 H39           -5.6075    -1.9080     0.8489 H       
  40 H40           -6.1835    -1.6291    -2.7672 H       
  41 H41           -7.6215     0.0930    -3.7819 H       
  42 H42           -8.4742     1.9505    -2.4087 H       
  43 H43           -7.8895     2.0854    -0.0205 H       
  44 H44           -6.4553     0.3607     0.9952 H       
@<TRIPOS>BOND
   1    1    2 2
   2    1    9 1
   3    1    5 1
   4    2    3 1
   5    2    6 1
   6    3    4 2
   7    3   15 1
   8    4    5 1
   9    4   18 1
  10    6    7 1
  11    6    8 2
  12    7   10 ar
  13    7   14 ar
  14    9   26 1
  15    9   27 1
  16   10   11 ar
  17   11   12 ar
  18   11   28 1
  19   12   13 ar
  20   12   29 1
  21   13   14 ar
  22   13   30 1
  23   14   31 1
  24   15   16 1
  25   15   32 1
  26   15   33 1
  27   16   17 1
  28   16   34 1
  29   16   35 1
  30   17   18 1
  31   17   19 1
  32   18   36 1
  33   18   37 1
  34   19   20 1
  35   19   38 1
  36   19   39 1
  37   20   21 ar
  38   20   25 ar
  39   21   22 ar
  40   21   40 1
  41   22   23 ar
  42   22   41 1
  43   23   24 ar
  44   23   42 1
  45   24   25 ar
  46   24   43 1
  47   25   44 1

#	End of record

