#	Name: ASD08150034
#	Creating user name:	WinNT
#	Creation time:	15. 06. 2019 21:15

#	Modifying user name:	WinNT
#	Modification time:	15. 06. 2019 21:15

#	Program:	/corina/corina34_cracker 3.40 0067  02.08.2006

@<TRIPOS>MOLECULE
ASD08150034
  53   58    0    0    0
SMALL
NO_CHARGES


@<TRIPOS>ATOM
   1 N1            -0.0155     1.2942     0.0092 N.2     
   2 C2             0.0021    -0.0041     0.0020 C.2     
   3 N3             1.1490    -0.7360    -0.0129 N.am    
   4 C4             2.3563    -0.1243    -0.0211 C.2     
   5 C5             2.3705     1.3450    -0.0133 C.ar    
   6 C6             3.5614     2.0711    -0.0203 C.ar    
   7 C7             3.5160     3.4496    -0.0121 C.ar    
   8 C8             2.2980     4.1155     0.0031 C.ar    
   9 C9             1.1114     3.4169     0.0107 C.ar    
  10 C10            1.1299     2.0209     0.0021 C.ar    
  11 O11            3.3904    -0.7665    -0.0340 O.2     
  12 Cl12           5.0888     1.2462    -0.0387 Cl      
  13 C13            1.0568    -2.8410     1.1879 C.ar    
  14 C14            1.0798    -2.1331    -0.0193 C.ar    
  15 C15            1.0332    -2.8223    -1.2218 C.ar    
  16 C16            0.9643    -4.2025    -1.2261 C.ar    
  17 C17            0.9415    -4.9044    -0.0339 C.ar    
  18 C18            0.9869    -4.2316     1.1707 C.ar    
  19 C19            1.1123    -2.1137     2.4793 C.ar    
  20 C20            0.1849    -2.3950     3.4809 C.ar    
  21 C21            0.2416    -1.7154     4.6808 C.ar    
  22 C22            1.2166    -0.7567     4.8902 C.ar    
  23 C23            2.1394    -0.4731     3.8995 C.ar    
  24 C24            2.0957    -1.1505     2.6979 C.ar    
  25 C25           -1.3144    -0.7374     0.0112 C.3     
  26 N26           -3.9892     1.5400     0.7810 N.2     
  27 C27           -3.0701     0.6878     1.1311 C.2     
  28 N28           -2.4131     0.2316     0.0273 N.pl3   
  29 C29           -2.9690     0.8468    -1.0658 C.ar    
  30 N30           -2.7544     0.8047    -2.3766 N.ar    
  31 C31           -3.4771     1.5361    -3.1986 C.ar    
  32 N32           -4.4374     2.3380    -2.7761 N.ar    
  33 C33           -4.7245     2.4461    -1.4829 C.ar    
  34 C34           -3.9805     1.6846    -0.5660 C.ar    
  35 N35           -5.7324     3.2896    -1.0495 N.pl3   
  36 H36            4.4358     4.0157    -0.0171 H       
  37 H37            2.2809     5.1954     0.0094 H       
  38 H38            0.1703     3.9466     0.0232 H       
  39 H39            1.0503    -2.2800    -2.1556 H       
  40 H40            0.9278    -4.7358    -2.1645 H       
  41 H41            0.8876    -5.9830    -0.0458 H       
  42 H42            0.9685    -4.7833     2.0990 H       
  43 H43           -0.5769    -3.1430     3.3183 H       
  44 H44           -0.4767    -1.9323     5.4575 H       
  45 H45            1.2573    -0.2274     5.8307 H       
  46 H46            2.8980     0.2768     4.0682 H       
  47 H47            2.8196    -0.9317     1.9268 H       
  48 H48           -1.3907    -1.3583    -0.8814 H       
  49 H49           -1.3730    -1.3678     0.8984 H       
  50 H50           -2.8588     0.3866     2.1465 H       
  51 H51           -3.2768     1.4784    -4.2583 H       
  52 H52           -6.2388     3.8104    -1.6923 H       
  53 H53           -5.9326     3.3599    -0.1030 H       
@<TRIPOS>BOND
   1    1    2 2
   2    1   10 1
   3    2    3 1
   4    2   25 1
   5    3    4 am
   6    3   14 1
   7    4    5 1
   8    4   11 2
   9    5    6 ar
  10    5   10 ar
  11    6    7 ar
  12    6   12 1
  13    7    8 ar
  14    7   36 1
  15    8    9 ar
  16    8   37 1
  17    9   10 ar
  18    9   38 1
  19   13   14 ar
  20   13   18 ar
  21   13   19 1
  22   14   15 ar
  23   15   16 ar
  24   15   39 1
  25   16   17 ar
  26   16   40 1
  27   17   18 ar
  28   17   41 1
  29   18   42 1
  30   19   20 ar
  31   19   24 ar
  32   20   21 ar
  33   20   43 1
  34   21   22 ar
  35   21   44 1
  36   22   23 ar
  37   22   45 1
  38   23   24 ar
  39   23   46 1
  40   24   47 1
  41   25   28 1
  42   25   48 1
  43   25   49 1
  44   26   27 2
  45   26   34 1
  46   27   28 1
  47   27   50 1
  48   28   29 1
  49   29   30 ar
  50   29   34 ar
  51   30   31 ar
  52   31   32 ar
  53   31   51 1
  54   32   33 ar
  55   33   34 ar
  56   33   35 1
  57   35   52 1
  58   35   53 1

#	End of record

