#	Name: ASD03240824
#	Creating user name:	WinNT
#	Creation time:	15. 06. 2019 20:35

#	Modifying user name:	WinNT
#	Modification time:	15. 06. 2019 20:35

#	Program:	/corina/corina34_cracker 3.40 0067  02.08.2006

@<TRIPOS>MOLECULE
ASD03240824
  66   70    0    0    0
SMALL
NO_CHARGES


@<TRIPOS>ATOM
   1 N1            -0.0162     1.3436     0.0094 N.am    
   2 C2            -0.2051     0.1223    -0.5284 C.2     
   3 O3             0.6861    -0.4062    -1.1646 O.2     
   4 N4            -1.3818    -0.5131    -0.3611 N.am    
   5 C5             1.2379     1.9541    -0.0671 C.ar    
   6 C6             1.3302     3.3337    -0.2144 C.ar    
   7 C7             2.5656     3.9386    -0.2906 C.ar    
   8 C8             3.7255     3.1652    -0.2193 C.ar    
   9 C9             3.6298     1.7805    -0.0709 C.ar    
  10 C10            2.3915     1.1817     0.0100 C.ar    
  11 N11            6.5451     6.5840    -2.0048 N.pl3   
  12 C12            7.7658     7.1962    -2.0957 C.2     
  13 N13            8.8356     6.7586    -1.4081 N.2     
  14 C14            8.7722     5.7221    -0.6123 C.2     
  15 C15            7.5010     5.0171    -0.4646 C.ar    
  16 C16            7.3711     3.9019     0.3708 C.ar    
  17 C17            6.1248     3.2908     0.4522 C.ar    
  18 C18            5.0539     3.8118    -0.3013 C.ar    
  19 N19            5.2152     4.8700    -1.0821 N.ar    
  20 C20            6.3823     5.4814    -1.1883 C.ar    
  21 C21            7.6166     8.2566    -2.9792 C.2     
  22 C22            6.2959     8.2655    -3.4098 C.2     
  23 N23            5.6567     7.2723    -2.8397 N.2     
  24 C24            5.9253     2.1053     1.3199 C.ar    
  25 C25            6.8008     1.0236     1.2387 C.ar    
  26 C26            6.6102    -0.0772     2.0489 C.ar    
  27 C27            5.5527    -0.1086     2.9402 C.ar    
  28 C28            4.6807     0.9619     3.0250 C.ar    
  29 C29            4.8648     2.0705     2.2240 C.ar    
  30 C30            5.6968     9.2517    -4.3792 C.3     
  31 H31           -0.7521     1.8002     0.4461 H       
  32 H32           -2.0928    -0.0915     0.1465 H       
  33 H33           -1.5177    -1.3921    -0.7482 H       
  34 H34            0.4324     3.9315    -0.2696 H       
  35 H35            2.6367     5.0101    -0.4058 H       
  36 H36            4.5254     1.1796    -0.0154 H       
  37 H37            2.3168     0.1109     0.1289 H       
  38 H38            9.6473     5.3921    -0.0724 H       
  39 H39            8.2127     3.5276     0.9347 H       
  40 H40            8.3886     8.9504    -3.2777 H       
  41 H41            7.6266     1.0468     0.5430 H       
  42 H42            7.2876    -0.9160     1.9867 H       
  43 H43            5.4072    -0.9723     3.5720 H       
  44 H44            3.8568     0.9319     3.7227 H       
  45 H45            4.1860     2.9076     2.2942 H       
  46 H46            5.8035     8.8727    -5.3956 H       
  47 H47            4.6397     9.3886    -4.1515 H       
  48 H48            6.2140    10.2072    -4.2915 H       
  49 N49           16.8666    18.2228    10.8258 N.am    
  50 C50           16.8865    16.7514    10.8177 C.3     
  51 C51           17.8069    16.2866     9.6833 C.3     
  52 O52           19.0733    16.9380     9.8078 O.3     
  53 C53           19.0144    18.3610     9.6829 C.3     
  54 C54           18.1559    18.9320    10.8173 C.3     
  55 C55           15.7018    18.9008    10.8350 C.2     
  56 O56           14.6473    18.2970    10.8368 O.2     
  57 O57           15.7066    20.2471    10.8423 O.3     
  58 H58           17.2653    16.3842    11.7715 H       
  59 H59           15.8785    16.3715    10.6516 H       
  60 H60           17.9450    15.2072     9.7457 H       
  61 H61           17.3588    16.5422     8.7231 H       
  62 H62           20.0212    18.7739     9.7450 H       
  63 H63           18.5707    18.6241     8.7227 H       
  64 H64           17.9884    19.9962    10.6510 H       
  65 H65           18.6624    18.7843    11.7711 H       
  66 H66           14.8466    20.6892    10.8488 H       
@<TRIPOS>BOND
   1    1    2 am
   2    1    5 1
   3    1   31 1
   4    2    3 2
   5    2    4 am
   6    4   32 1
   7    4   33 1
   8    5    6 ar
   9    5   10 ar
  10    6    7 ar
  11    6   34 1
  12    7    8 ar
  13    7   35 1
  14    8    9 ar
  15    8   18 1
  16    9   10 ar
  17    9   36 1
  18   10   37 1
  19   11   12 1
  20   11   20 1
  21   11   23 1
  22   12   13 1
  23   12   21 2
  24   13   14 2
  25   14   15 1
  26   14   38 1
  27   15   16 ar
  28   15   20 ar
  29   16   17 ar
  30   16   39 1
  31   17   18 ar
  32   17   24 1
  33   18   19 ar
  34   19   20 ar
  35   21   22 1
  36   21   40 1
  37   22   23 2
  38   22   30 1
  39   24   25 ar
  40   24   29 ar
  41   25   26 ar
  42   25   41 1
  43   26   27 ar
  44   26   42 1
  45   27   28 ar
  46   27   43 1
  47   28   29 ar
  48   28   44 1
  49   29   45 1
  50   30   46 1
  51   30   47 1
  52   30   48 1
  53   49   50 1
  54   49   54 1
  55   49   55 am
  56   50   51 1
  57   50   58 1
  58   50   59 1
  59   51   52 1
  60   51   60 1
  61   51   61 1
  62   52   53 1
  63   53   54 1
  64   53   62 1
  65   53   63 1
  66   54   64 1
  67   54   65 1
  68   55   56 2
  69   55   57 1
  70   57   66 1

#	End of record

