#	Name: ASD01028073
#	Creating user name:	WinNT
#	Creation time:	15. 06. 2019 18:56

#	Modifying user name:	WinNT
#	Modification time:	15. 06. 2019 18:56

#	Program:	/corina/corina34_cracker 3.40 0067  02.08.2006

@<TRIPOS>MOLECULE
ASD01028073
  57   61    0    0    0
SMALL
NO_CHARGES


@<TRIPOS>ATOM
   1 C1            -0.0153     1.5327     0.0393 C.3     
   2 C2             0.0064     0.0005     0.0480 C.3     
   3 C3            -1.3745    -0.5266    -0.3432 C.3     
   4 N4             1.4311     3.4514    -0.4555 N.3     
   5 C5             1.4190     2.0610     0.0153 C.3     
   6 C6             1.9755     3.5319    -1.8211 C.3     
   7 N7             0.4663     1.2487    -4.5462 N.pl3   
   8 C8             1.1227     2.3518    -5.0725 C.ar    
   9 C9             1.3435     3.4366    -4.2252 C.ar    
  10 C10            0.8269     3.3703    -2.8156 C.3     
  11 C11            1.5566     2.4053    -6.3920 C.ar    
  12 C12            2.2292     3.5293    -6.8491 C.ar    
  13 C13            2.4619     4.5954    -5.9903 C.ar    
  14 C14            2.0146     4.5453    -4.6855 C.ar    
  15 O15           -1.2476    -1.7880    -1.0018 O.3     
  16 C16           -1.3498    -1.7742    -2.3588 C.ar    
  17 C17           -0.7140    -0.7900    -3.0603 C.ar    
  18 C18           -0.8137    -0.7699    -4.4573 C.ar    
  19 C19           -0.1870     0.2567    -5.2208 C.ar    
  20 N20           -0.2961     0.1999    -6.5378 N.ar    
  21 O21            1.4556     1.4969    -7.3988 O.3     
  22 C22            1.9837     2.1112    -8.5842 C.3     
  23 O23            2.5570     3.3573    -8.1593 O.3     
  24 C24           -2.0996    -2.7569    -3.0187 C.ar    
  25 C25           -2.2001    -2.7619    -4.3925 C.ar    
  26 C26           -1.5521    -1.7648    -5.1353 C.ar    
  27 N27           -1.6099    -1.7161    -6.4764 N.ar    
  28 C28           -0.9906    -0.7611    -7.1304 C.ar    
  29 O29           -2.7342    -3.7159    -2.2955 O.3     
  30 C30           -3.4827    -4.6901    -3.0254 C.3     
  31 C31            0.0874     4.0414    -0.3888 C.3     
  32 H32           -0.5467     1.8837    -0.8453 H       
  33 H33           -0.5209     1.8942     0.9346 H       
  34 H34            0.7480    -0.3569    -0.6663 H       
  35 H35            0.2618    -0.3540     1.0466 H       
  36 H36           -1.9832    -0.6461     0.5531 H       
  37 H37           -1.8566     0.1847    -1.0137 H       
  38 H38            1.8386     2.0153     1.0203 H       
  39 H39            2.0201     1.4465    -0.6549 H       
  40 H40            2.4529     4.5008    -1.9679 H       
  41 H41            2.7045     2.7357    -1.9717 H       
  42 H42            0.4722     1.1722    -3.5792 H       
  43 H43            0.3424     2.4074    -2.6539 H       
  44 H44            0.1000     4.1675    -2.6600 H       
  45 H45            2.9946     5.4657    -6.3441 H       
  46 H46            2.1921     5.3801    -4.0236 H       
  47 H47           -0.1405    -0.0348    -2.5433 H       
  48 H48            2.7511     1.4760    -9.0266 H       
  49 H49            1.1838     2.2912    -9.3024 H       
  50 H50           -2.7732    -3.5280    -4.8936 H       
  51 H51           -1.0502    -0.7582    -8.2087 H       
  52 H52           -2.8181    -5.2260    -3.7030 H       
  53 H53           -3.9375    -5.3950    -2.3295 H       
  54 H54           -4.2635    -4.1922    -3.6004 H       
  55 H55           -0.3072     3.9332     0.6215 H       
  56 H56            0.1419     5.0991    -0.6462 H       
  57 H57           -0.5695     3.5296    -1.0922 H       
@<TRIPOS>BOND
   1    1    2 1
   2    1    5 1
   3    1   32 1
   4    1   33 1
   5    2    3 1
   6    2   34 1
   7    2   35 1
   8    3   15 1
   9    3   36 1
  10    3   37 1
  11    4    5 1
  12    4    6 1
  13    4   31 1
  14    5   38 1
  15    5   39 1
  16    6   10 1
  17    6   40 1
  18    6   41 1
  19    7    8 1
  20    7   19 1
  21    7   42 1
  22    8    9 ar
  23    8   11 ar
  24    9   10 1
  25    9   14 ar
  26   10   43 1
  27   10   44 1
  28   11   12 ar
  29   11   21 1
  30   12   13 ar
  31   12   23 1
  32   13   14 ar
  33   13   45 1
  34   14   46 1
  35   15   16 1
  36   16   17 ar
  37   16   24 ar
  38   17   18 ar
  39   17   47 1
  40   18   19 ar
  41   18   26 ar
  42   19   20 ar
  43   20   28 ar
  44   21   22 1
  45   22   23 1
  46   22   48 1
  47   22   49 1
  48   24   25 ar
  49   24   29 1
  50   25   26 ar
  51   25   50 1
  52   26   27 ar
  53   27   28 ar
  54   28   51 1
  55   29   30 1
  56   30   52 1
  57   30   53 1
  58   30   54 1
  59   31   55 1
  60   31   56 1
  61   31   57 1

#	End of record

