#	Name: ASD05503069
#	Creating user name:	WinNT
#	Creation time:	15. 06. 2019 21:01

#	Modifying user name:	WinNT
#	Modification time:	15. 06. 2019 21:01

#	Program:	/corina/corina34_cracker 3.40 0067  02.08.2006

@<TRIPOS>MOLECULE
ASD05503069
  45   46    0    0    0
SMALL
NO_CHARGES


@<TRIPOS>ATOM
   1 C1            -0.3118     1.0938     0.1945 C.ar    
   2 C2            -0.0685    -0.2624     0.3702 C.ar    
   3 C3             1.2311    -0.7456     0.3139 C.ar    
   4 C4             2.2835     0.1282     0.0822 C.ar    
   5 C5             2.0333     1.4839    -0.0928 C.ar    
   6 C6             0.7385     1.9616    -0.0362 C.ar    
   7 N7             3.5947    -0.3547     0.0251 N.am    
   8 C8             3.8450    -1.5626    -0.5179 C.2     
   9 C9             5.2392    -2.0283    -0.6737 C.ar    
  10 C10            6.2917    -1.2787    -0.1462 C.ar    
  11 C11            7.5907    -1.7191    -0.2952 C.ar    
  12 C12            7.8511    -2.9006    -0.9662 C.ar    
  13 C13            6.8122    -3.6486    -1.4916 C.ar    
  14 C14            5.5085    -3.2229    -1.3443 C.ar    
  15 C15            4.3783    -4.0387    -1.9172 C.3     
  16 N16           -1.1326    -1.1403     0.6042 N.am    
  17 C17           -2.2090    -0.7241     1.3004 C.2     
  18 C18           -3.4033    -1.6303     1.4544 C.3     
  19 C19           -4.4777    -0.9218     2.2818 C.3     
  20 C20           -5.7366    -1.7898     2.3333 C.3     
  21 O21            2.9242    -2.2690    -0.8795 O.2     
  22 O22           -2.2165     0.3797     1.8029 O.2     
  23 C23           -3.9583    -0.6917     3.7024 C.3     
  24 H24           -1.3235     1.4699     0.2338 H       
  25 H25            1.4229    -1.7996     0.4506 H       
  26 H26            2.8521     2.1647    -0.2729 H       
  27 H27            0.5466     3.0157    -0.1725 H       
  28 H28            4.3241     0.1797     0.3764 H       
  29 H29            6.0898    -0.3559     0.3772 H       
  30 H30            8.4061    -1.1401     0.1125 H       
  31 H31            8.8698    -3.2405    -1.0807 H       
  32 H32            7.0223    -4.5700    -2.0143 H       
  33 H33            3.9549    -4.6712    -1.1369 H       
  34 H34            3.6073    -3.3713    -2.3022 H       
  35 H35            4.7553    -4.6636    -2.7267 H       
  36 H36           -1.0956    -2.0485     0.2654 H       
  37 H37           -3.8040    -1.8735     0.4704 H       
  38 H38           -3.1008    -2.5471     1.9604 H       
  39 H39           -4.7163     0.0375     1.8224 H       
  40 H40           -5.4980    -2.7490     2.7927 H       
  41 H41           -6.5020    -1.2850     2.9228 H       
  42 H42           -6.1066    -1.9537     1.3212 H       
  43 H43           -3.0614    -0.0734     3.6657 H       
  44 H44           -4.7237    -0.1870     4.2918 H       
  45 H45           -3.7197    -1.6510     4.1618 H       
@<TRIPOS>BOND
   1    1    2 ar
   2    1    6 ar
   3    1   24 1
   4    2    3 ar
   5    2   16 1
   6    3    4 ar
   7    3   25 1
   8    4    5 ar
   9    4    7 1
  10    5    6 ar
  11    5   26 1
  12    6   27 1
  13    7    8 am
  14    7   28 1
  15    8    9 1
  16    8   21 2
  17    9   10 ar
  18    9   14 ar
  19   10   11 ar
  20   10   29 1
  21   11   12 ar
  22   11   30 1
  23   12   13 ar
  24   12   31 1
  25   13   14 ar
  26   13   32 1
  27   14   15 1
  28   15   33 1
  29   15   34 1
  30   15   35 1
  31   16   17 am
  32   16   36 1
  33   17   18 1
  34   17   22 2
  35   18   19 1
  36   18   37 1
  37   18   38 1
  38   19   20 1
  39   19   23 1
  40   19   39 1
  41   20   40 1
  42   20   41 1
  43   20   42 1
  44   23   43 1
  45   23   44 1
  46   23   45 1

#	End of record

