#	Name: ASD01916036
#	Creating user name:	WinNT
#	Creation time:	15. 06. 2019 20:06

#	Modifying user name:	WinNT
#	Modification time:	15. 06. 2019 20:06

#	Program:	/corina/corina34_cracker 3.40 0067  02.08.2006

@<TRIPOS>MOLECULE
ASD01916036
  41   42    0    0    0
SMALL
NO_CHARGES


@<TRIPOS>ATOM
   1 C1            -0.1280     1.1371    -1.0077 C.ar    
   2 C2            -0.1352    -0.2279    -0.6879 C.ar    
   3 C3            -1.3478    -0.8317    -0.4163 C.ar    
   4 C4            -2.5153    -0.0695    -0.4687 C.ar    
   5 C5            -3.8179    -0.7090    -0.1790 C.2     
   6 N6            -4.9347     0.0415    -0.1016 N.am    
   7 O7            -3.8807    -1.9111    -0.0109 O.2     
   8 C8             1.1031     1.8088    -1.2971 C.1     
   9 C9             2.1123     2.3596    -1.5344 C.1     
  10 C10            3.3434     3.0313    -1.8239 C.ar    
  11 C11            3.3617     4.3959    -2.1447 C.ar    
  12 C12            5.7267     3.0325    -2.0743 C.ar    
  13 C13            4.5698     5.0027    -2.4160 C.ar    
  14 N14           -2.4734     1.2226    -0.7747 N.ar    
  15 C15           -1.3435     1.8331    -1.0455 C.ar    
  16 C16            4.5645     2.3446    -1.7887 C.ar    
  17 N17            5.6970     4.3177    -2.3768 N.ar    
  18 C18           -6.2404    -0.6027     0.0602 C.3     
  19 C19           -7.3336     0.4665     0.1133 C.3     
  20 C20           -6.4982    -1.5373    -1.1235 C.3     
  21 C21           -6.2532    -1.4102     1.3597 C.3     
  22 F22           -7.2405     1.2851    -1.0174 F       
  23 F23           -8.5887    -0.1508     0.1401 F       
  24 F24           -7.1710     1.2428     1.2658 F       
  25 Cl25           7.2473     2.1956    -2.0415 Cl      
  26 C26           -4.8428     1.5016    -0.1793 C.3     
  27 H27            0.7843    -0.7935    -0.6551 H       
  28 H28           -1.3915    -1.8816    -0.1666 H       
  29 H29            2.4434     4.9633    -2.1792 H       
  30 H30            4.5938     6.0534    -2.6645 H       
  31 H31           -1.3496     2.8852    -1.2897 H       
  32 H32            4.5958     1.2937    -1.5417 H       
  33 H33           -5.7194    -2.2990    -1.1613 H       
  34 H34           -7.4697    -2.0166    -1.0031 H       
  35 H35           -6.4891    -0.9620    -2.0493 H       
  36 H36           -6.0696    -0.7444     2.2030 H       
  37 H37           -7.2247    -1.8895     1.4801 H       
  38 H38           -5.4744    -2.1719     1.3219 H       
  39 H39           -4.8221     1.8092    -1.2248 H       
  40 H40           -5.7073     1.9467     0.3133 H       
  41 H41           -3.9308     1.8351     0.3158 H       
@<TRIPOS>BOND
   1    1    2 ar
   2    1    8 1
   3    1   15 ar
   4    2    3 ar
   5    2   27 1
   6    3    4 ar
   7    3   28 1
   8    4   14 ar
   9    4    5 1
  10    5    6 am
  11    5    7 2
  12    6   26 1
  13    6   18 1
  14    8    9 3
  15    9   10 1
  16   10   11 ar
  17   10   16 ar
  18   11   13 ar
  19   11   29 1
  20   12   17 ar
  21   12   25 1
  22   12   16 ar
  23   13   17 ar
  24   13   30 1
  25   14   15 ar
  26   15   31 1
  27   16   32 1
  28   18   20 1
  29   18   21 1
  30   18   19 1
  31   19   22 1
  32   19   23 1
  33   19   24 1
  34   20   33 1
  35   20   34 1
  36   20   35 1
  37   21   36 1
  38   21   37 1
  39   21   38 1
  40   26   39 1
  41   26   40 1
  42   26   41 1

#	End of record

