#	Name: ASD01815723
#	Creating user name:	WinNT
#	Creation time:	15. 06. 2019 19:33

#	Modifying user name:	WinNT
#	Modification time:	15. 06. 2019 19:33

#	Program:	/corina/corina34_cracker 3.40 0067  02.08.2006

@<TRIPOS>MOLECULE
ASD01815723
  51   55    0    0    0
SMALL
NO_CHARGES


@<TRIPOS>ATOM
   1 C1            -0.0168     1.3869     0.0097 C.ar    
   2 C2             0.0021    -0.0041     0.0020 C.ar    
   3 C3             1.1801    -0.6897    -0.0129 C.ar    
   4 C4             2.3948     0.0129    -0.0207 C.ar    
   5 C5             2.3717     1.4290    -0.0129 C.ar    
   6 C6             1.1455     2.1015     0.0024 C.ar    
   7 C7             3.6293    -0.6694    -0.0365 C.ar    
   8 C8             4.8031     0.0063    -0.0446 C.ar    
   9 C9             4.8359     1.4095    -0.0374 C.ar    
  10 C10            3.6406     2.1511    -0.0211 C.ar    
  11 C11            6.1026     2.1526    -0.0470 C.2     
  12 N12            6.0328     3.5041    -0.0399 N.am    
  13 C13            4.8302     4.1313    -0.0241 C.2     
  14 N14            3.6961     3.4935    -0.0158 N.2     
  15 O15            7.1745     1.5748    -0.0604 O.2     
  16 C16            7.2655     4.2957    -0.0490 C.3     
  17 C17            7.3196     5.1740     1.2048 C.3     
  18 C18            8.5708     6.0543     1.1481 C.3     
  19 O19            8.5445     6.8410    -0.0446 O.3     
  20 C20            8.5410     6.0734    -1.2500 C.3     
  21 C21            7.2886     5.1938    -1.2896 C.3     
  22 C22            3.6424    -2.1763    -0.0442 C.3     
  23 C23            3.5087    -2.6726    -1.4608 C.ar    
  24 C24            4.6390    -2.8892    -2.2267 C.ar    
  25 C25            4.5168    -3.3449    -3.5259 C.ar    
  26 C26            3.2633    -3.5841    -4.0597 C.ar    
  27 C27            2.1326    -3.3672    -3.2930 C.ar    
  28 C28            2.2560    -2.9166    -1.9922 C.ar    
  29 O29            7.3717     4.3444     2.3672 O.3     
  30 Br30           3.0955    -4.2069    -5.8373 Br      
  31 H31           -0.9630     1.9076     0.0169 H       
  32 H32           -0.9305    -0.5488     0.0083 H       
  33 H33            1.1786    -1.7697    -0.0183 H       
  34 H34            1.1188     3.1811     0.0081 H       
  35 H35            5.7317    -0.5451    -0.0563 H       
  36 H36            4.8132     5.2111    -0.0182 H       
  37 H37            8.1281     3.6295    -0.0650 H       
  38 H38            6.4318     5.8051     1.2460 H       
  39 H39            8.5922     6.7121     2.0170 H       
  40 H40            9.4596     5.4232     1.1477 H       
  41 H41            8.5409     6.7448    -2.1086 H       
  42 H42            9.4294     5.4425    -1.2817 H       
  43 H43            7.3062     4.5752    -2.1869 H       
  44 H44            6.4002     5.8253    -1.2987 H       
  45 H45            4.5813    -2.5336     0.3789 H       
  46 H46            2.8098    -2.5499     0.5518 H       
  47 H47            5.6176    -2.7021    -1.8100 H       
  48 H48            5.3999    -3.5137    -4.1243 H       
  49 H49            1.1537    -3.5535    -3.7095 H       
  50 H50            1.3732    -2.7472    -1.3934 H       
  51 H51            7.4077     4.8353     3.1995 H       
@<TRIPOS>BOND
   1    1    2 ar
   2    1    6 ar
   3    1   31 1
   4    2    3 ar
   5    2   32 1
   6    3    4 ar
   7    3   33 1
   8    4    5 ar
   9    4    7 ar
  10    5    6 ar
  11    5   10 ar
  12    6   34 1
  13    7    8 ar
  14    7   22 1
  15    8    9 ar
  16    8   35 1
  17    9   10 ar
  18    9   11 1
  19   10   14 1
  20   11   12 am
  21   11   15 2
  22   12   13 1
  23   12   16 1
  24   13   14 2
  25   13   36 1
  26   16   17 1
  27   16   21 1
  28   16   37 1
  29   17   18 1
  30   17   29 1
  31   17   38 1
  32   18   19 1
  33   18   39 1
  34   18   40 1
  35   19   20 1
  36   20   21 1
  37   20   41 1
  38   20   42 1
  39   21   43 1
  40   21   44 1
  41   22   23 1
  42   22   45 1
  43   22   46 1
  44   23   24 ar
  45   23   28 ar
  46   24   25 ar
  47   24   47 1
  48   25   26 ar
  49   25   48 1
  50   26   27 ar
  51   26   30 1
  52   27   28 ar
  53   27   49 1
  54   28   50 1
  55   29   51 1

#	End of record

