#	Name: ASD01813203
#	Creating user name:	WinNT
#	Creation time:	15. 06. 2019 19:30

#	Modifying user name:	WinNT
#	Modification time:	15. 06. 2019 19:30

#	Program:	/corina/corina34_cracker 3.40 0067  02.08.2006

@<TRIPOS>MOLECULE
ASD01813203
  68   72    0    0    0
SMALL
NO_CHARGES


@<TRIPOS>ATOM
   1 C1            -0.0169     1.3972     0.0097 C.2     
   2 C2             0.0021    -0.0041     0.0020 C.2     
   3 C3             1.1986    -0.6593    -0.0129 C.2     
   4 C4             2.3918     0.0821    -0.0204 C.2     
   5 N5             2.3437     1.4497    -0.0122 N.am    
   6 C6             1.1421     2.0937     0.0024 C.2     
   7 C7             3.6227    -0.5889    -0.0356 C.2     
   8 C8             4.7877     0.1218    -0.0425 C.2     
   9 C9             4.7345     1.5280    -0.0346 C.2     
  10 C10            3.4812     2.1736    -0.0189 C.2     
  11 O11            3.4258     3.3917    -0.0123 O.2     
  12 C12            5.9703     2.3140    -0.0413 C.2     
  13 O13            5.9124     3.6618    -0.0337 O.3     
  14 O14            7.0487     1.7516    -0.0537 O.2     
  15 C15            3.6593    -2.0954    -0.0439 C.3     
  16 N16            3.7787    -2.5747    -1.4274 N.3     
  17 C17            4.0548    -4.0165    -1.4628 C.3     
  18 C18            4.3164    -4.4518    -2.9065 C.3     
  19 C19            3.0893    -4.1270    -3.7628 C.3     
  20 C20            2.7945    -2.6273    -3.6699 C.3     
  21 C21            2.5770    -2.2449    -2.2042 C.3     
  22 C22            3.3636    -4.4985    -5.1973 C.2     
  23 C23            4.3386    -4.0067    -5.9740 C.2     
  24 N24            4.2773    -4.5811    -7.2214 N.am    
  25 C25            3.2281    -5.4805    -7.2688 C.ar    
  26 C26            2.6172    -5.4707    -6.0030 C.ar    
  27 C27            2.7281    -6.3150    -8.2610 C.ar    
  28 C28            1.6384    -7.1169    -7.9964 C.ar    
  29 C29            1.0344    -7.0991    -6.7474 C.ar    
  30 C30            1.5163    -6.2917    -5.7550 C.ar    
  31 C31            5.1131    -4.3088    -8.2432 C.2     
  32 O32            6.1033    -3.4117    -8.0819 O.3     
  33 O33            4.9725    -4.8730    -9.3095 O.2     
  34 C34            6.9651    -3.1685    -9.2249 C.3     
  35 C35            6.1264    -2.6492   -10.3945 C.3     
  36 C36            8.0227    -2.1271    -8.8537 C.3     
  37 C37            7.6541    -4.4728    -9.6309 C.3     
  38 H38           -0.9605     1.9226     0.0170 H       
  39 H39           -0.9233    -0.5609     0.0082 H       
  40 H40            1.2282    -1.7389    -0.0187 H       
  41 H41            1.1156     3.1733     0.0087 H       
  42 H42            5.7393    -0.3889    -0.0536 H       
  43 H43            6.7544     4.1373    -0.0385 H       
  44 H44            4.5153    -2.4412     0.5356 H       
  45 H45            2.7412    -2.4836     0.3971 H       
  46 H46            4.9321    -4.2334    -0.8534 H       
  47 H47            3.1960    -4.5605    -1.0695 H       
  48 H48            5.1835    -3.9184    -3.2959 H       
  49 H49            4.5059    -5.5249    -2.9344 H       
  50 H50            2.2307    -4.6903    -3.3974 H       
  51 H51            3.6377    -2.0651    -4.0714 H       
  52 H52            1.8966    -2.3968    -4.2433 H       
  53 H53            1.7251    -2.7971    -1.8073 H       
  54 H54            2.3809    -1.1750    -2.1332 H       
  55 H55            5.0644    -3.2687    -5.6659 H       
  56 H56            3.1914    -6.3350    -9.2363 H       
  57 H57            1.2511    -7.7649    -8.7687 H       
  58 H58            0.1812    -7.7329    -6.5556 H       
  59 H59            1.0412    -6.2827    -4.7852 H       
  60 H60            5.6356    -1.7200   -10.1053 H       
  61 H61            6.7734    -2.4666   -11.2526 H       
  62 H62            5.3730    -3.3911   -10.6589 H       
  63 H63            8.6202    -2.4970    -8.0205 H       
  64 H64            8.6696    -1.9445    -9.7118 H       
  65 H65            7.5319    -1.1978    -8.5645 H       
  66 H66            6.9006    -5.2148    -9.8953 H       
  67 H67            8.3010    -4.2902   -10.4889 H       
  68 H68            8.2515    -4.8428    -8.7976 H       
@<TRIPOS>BOND
   1    1    2 1
   2    1    6 2
   3    1   38 1
   4    2    3 2
   5    2   39 1
   6    3    4 1
   7    3   40 1
   8    4    5 1
   9    4    7 2
  10    5    6 1
  11    5   10 am
  12    6   41 1
  13    7    8 1
  14    7   15 1
  15    8    9 2
  16    8   42 1
  17    9   10 1
  18    9   12 1
  19   10   11 2
  20   12   13 1
  21   12   14 2
  22   13   43 1
  23   15   16 1
  24   15   44 1
  25   15   45 1
  26   16   17 1
  27   16   21 1
  28   17   18 1
  29   17   46 1
  30   17   47 1
  31   18   19 1
  32   18   48 1
  33   18   49 1
  34   19   20 1
  35   19   22 1
  36   19   50 1
  37   20   21 1
  38   20   51 1
  39   20   52 1
  40   21   53 1
  41   21   54 1
  42   22   23 2
  43   22   26 1
  44   23   24 1
  45   23   55 1
  46   24   25 1
  47   24   31 am
  48   25   26 ar
  49   25   27 ar
  50   26   30 ar
  51   27   28 ar
  52   27   56 1
  53   28   29 ar
  54   28   57 1
  55   29   30 ar
  56   29   58 1
  57   30   59 1
  58   31   32 1
  59   31   33 2
  60   32   34 1
  61   34   35 1
  62   34   36 1
  63   34   37 1
  64   35   60 1
  65   35   61 1
  66   35   62 1
  67   36   63 1
  68   36   64 1
  69   36   65 1
  70   37   66 1
  71   37   67 1
  72   37   68 1

#	End of record

