#	Name: ASD02320048
#	Creating user name:	WinNT
#	Creation time:	15. 06. 2019 20:20

#	Modifying user name:	WinNT
#	Modification time:	15. 06. 2019 20:20

#	Program:	/corina/corina34_cracker 3.40 0067  02.08.2006

@<TRIPOS>MOLECULE
ASD02320048
 101  107    0    0    0
SMALL
NO_CHARGES


@<TRIPOS>ATOM
   1 C1            -0.0521     1.3503    -0.1110 C.ar    
   2 C2            -0.0261    -0.0379    -0.1341 C.ar    
   3 C3             1.1689    -0.7207    -0.1548 C.ar    
   4 C4             2.3726    -0.0101    -0.1527 C.ar    
   5 C5             2.3417     1.4032    -0.1291 C.ar    
   6 C6             1.1208     2.0737    -0.1084 C.ar    
   7 N7             3.5633    -0.6416    -0.1721 N.2     
   8 C8             4.6925     0.0204    -0.1697 C.2     
   9 N9             4.7563     1.3872    -0.1476 N.am    
  10 C10            3.6224     2.1257    -0.1269 C.2     
  11 O11            3.6612     3.3421    -0.1075 O.2     
  12 C12            5.9561    -0.7430    -0.1913 C.ar    
  13 C13            6.9216    -0.5275     0.7952 C.ar    
  14 C14            8.0989    -1.2421     0.7717 C.ar    
  15 C15            8.3272    -2.1760    -0.2316 C.ar    
  16 C16            7.3696    -2.3930    -1.2149 C.ar    
  17 C17            6.1870    -1.6869    -1.1950 C.ar    
  18 N18           15.3618     6.1446    -7.3220 N.pl3   
  19 C19           16.5000     5.6630    -7.8730 C.2     
  20 N20           15.6203     7.2928    -6.8010 N.2     
  21 N21           16.8588     7.5917    -6.9779 N.2     
  22 C22           17.4529     6.5973    -7.6471 C.2     
  23 C23           18.8988     6.5302    -8.0664 C.3     
  24 N24           19.0699     7.2279    -9.3432 N.am    
  25 C25           19.2654     8.5671    -9.3571 C.2     
  26 C26           19.0366     6.5208   -10.5143 C.2     
  27 N27           19.1826     7.0785   -11.6896 N.2     
  28 C28           19.3775     8.4054   -11.8240 C.ar    
  29 C29           19.4310     9.2149   -10.6663 C.ar    
  30 C30           19.5330     8.9981   -13.0806 C.ar    
  31 C31           19.7289    10.3468   -13.1758 C.ar    
  32 C32           19.7769    11.1442   -12.0395 C.ar    
  33 C33           19.6314    10.5888   -10.7868 C.ar    
  34 O34           19.3023     9.2108    -8.3246 O.2     
  35 C35           18.8268     5.0608   -10.4492 C.ar    
  36 C36           17.7790     4.4714   -11.1609 C.ar    
  37 C37           17.5867     3.1088   -11.0975 C.ar    
  38 C38           18.4331     2.3209   -10.3270 C.ar    
  39 C39           19.4764     2.9033    -9.6177 C.ar    
  40 C40           19.6791     4.2643    -9.6804 C.ar    
  41 C41            6.0602     2.0551    -0.1460 C.3     
  42 C42            6.5704     2.1813    -1.5829 C.3     
  43 C43            7.9321     2.8789    -1.5812 C.3     
  44 C44            8.4422     3.0052    -3.0181 C.3     
  45 C45            9.8040     3.7027    -3.0164 C.3     
  46 C46           10.3141     3.8290    -4.4533 C.3     
  47 C47           11.6759     4.5266    -4.4515 C.3     
  48 C48           12.1860     4.6528    -5.8884 C.3     
  49 C49           13.5477     5.3504    -5.8867 C.3     
  50 C50           14.0579     5.4766    -7.3236 C.3     
  51 O51           18.2399     0.9784   -10.2668 O.3     
  52 S52           18.9908     0.1963   -11.3349 S.o2    
  53 O53           18.5238    -1.1433   -11.2541 O.2     
  54 O54           18.9228     0.9728   -12.5230 O.2     
  55 O55           20.4562     0.1662   -10.9245 O.3     
  56 Na56          20.8525    -1.0864    -9.4298 Du      
  57 O57            9.4891    -2.8780    -0.2514 O.3     
  58 S58            9.4358    -4.1854     0.5259 S.o2    
  59 O59           10.7669    -4.6808     0.5696 O.2     
  60 O60            8.6635    -3.9285     1.6907 O.2     
  61 O61            8.6364    -5.1745    -0.3103 O.3     
  62 Na62           9.6298    -5.9005    -1.8744 Du      
  63 H63           -1.0001     1.8677    -0.0995 H       
  64 H64           -0.9551    -0.5887    -0.1355 H       
  65 H65            1.1765    -1.8006    -0.1723 H       
  66 H66            1.0937     3.1532    -0.0901 H       
  67 H67            6.7452     0.1987     1.5749 H       
  68 H68            8.8458    -1.0761     1.5340 H       
  69 H69            7.5510    -3.1194    -1.9932 H       
  70 H70            5.4431    -1.8564    -1.9593 H       
  71 H71           16.6233     4.7222    -8.3888 H       
  72 H72           19.5198     7.0051    -7.3069 H       
  73 H73           19.1964     5.4877    -8.1793 H       
  74 H74           19.4988     8.3914   -13.9735 H       
  75 H75           19.8484    10.7997   -14.1490 H       
  76 H76           19.9335    12.2082   -12.1384 H       
  77 H77           19.6691    11.2132    -9.9064 H       
  78 H78           17.1206     5.0831   -11.7596 H       
  79 H79           16.7767     2.6524   -11.6470 H       
  80 H80           20.1321     2.2874    -9.0200 H       
  81 H81           20.4904     4.7162    -9.1291 H       
  82 H82            5.9592     3.0480     0.2923 H       
  83 H83            6.7678     1.4692     0.4407 H       
  84 H84            6.6713     1.1885    -2.0212 H       
  85 H85            5.8627     2.7672    -2.1695 H       
  86 H86            7.8311     3.8718    -1.1429 H       
  87 H87            8.6397     2.2931    -0.9945 H       
  88 H88            8.5432     2.0123    -3.4563 H       
  89 H89            7.7346     3.5910    -3.6047 H       
  90 H90            9.7030     4.6956    -2.5781 H       
  91 H91           10.5116     3.1169    -2.4297 H       
  92 H92           10.4151     2.8361    -4.8915 H       
  93 H93            9.6065     4.4148    -5.0399 H       
  94 H94           11.5749     5.5194    -4.0133 H       
  95 H95           12.3835     3.9407    -3.8649 H       
  96 H96           12.2870     3.6599    -6.3267 H       
  97 H97           11.4784     5.2387    -6.4751 H       
  98 H98           13.4468     6.3433    -5.4485 H       
  99 H99           14.2554     4.7645    -5.3001 H       
 100 H100          13.3503     6.0625    -7.9103 H       
 101 H101          14.1589     4.4837    -7.7619 H       
@<TRIPOS>BOND
   1    1    2 ar
   2    1    6 ar
   3    1   63 1
   4    2    3 ar
   5    2   64 1
   6    3    4 ar
   7    3   65 1
   8    4    5 ar
   9    4    7 1
  10    5    6 ar
  11    5   10 1
  12    6   66 1
  13    7    8 2
  14    8    9 1
  15    8   12 1
  16    9   10 am
  17    9   41 1
  18   10   11 2
  19   12   13 ar
  20   12   17 ar
  21   13   14 ar
  22   13   67 1
  23   14   15 ar
  24   14   68 1
  25   15   16 ar
  26   15   57 1
  27   16   17 ar
  28   16   69 1
  29   17   70 1
  30   18   19 1
  31   18   20 1
  32   18   50 1
  33   19   22 2
  34   19   71 1
  35   20   21 2
  36   21   22 1
  37   22   23 1
  38   23   24 1
  39   23   72 1
  40   23   73 1
  41   24   25 am
  42   24   26 1
  43   25   34 2
  44   25   29 1
  45   26   27 2
  46   26   35 1
  47   27   28 1
  48   28   29 ar
  49   28   30 ar
  50   29   33 ar
  51   30   31 ar
  52   30   74 1
  53   31   32 ar
  54   31   75 1
  55   32   33 ar
  56   32   76 1
  57   33   77 1
  58   35   36 ar
  59   35   40 ar
  60   36   37 ar
  61   36   78 1
  62   37   38 ar
  63   37   79 1
  64   38   39 ar
  65   38   51 1
  66   39   40 ar
  67   39   80 1
  68   40   81 1
  69   41   42 1
  70   41   82 1
  71   41   83 1
  72   42   43 1
  73   42   84 1
  74   42   85 1
  75   43   44 1
  76   43   86 1
  77   43   87 1
  78   44   45 1
  79   44   88 1
  80   44   89 1
  81   45   46 1
  82   45   90 1
  83   45   91 1
  84   46   47 1
  85   46   92 1
  86   46   93 1
  87   47   48 1
  88   47   94 1
  89   47   95 1
  90   48   49 1
  91   48   96 1
  92   48   97 1
  93   49   50 1
  94   49   98 1
  95   49   99 1
  96   50  100 1
  97   50  101 1
  98   51   52 1
  99   52   53 2
 100   52   54 2
 101   52   55 1
 102   55   56 1
 103   57   58 1
 104   58   59 2
 105   58   60 2
 106   58   61 1
 107   61   62 1

#	End of record

