#	Name: ASD01890219
#	Creating user name:	WinNT
#	Creation time:	15. 06. 2019 19:50

#	Modifying user name:	WinNT
#	Modification time:	15. 06. 2019 19:50

#	Program:	/corina/corina34_cracker 3.40 0067  02.08.2006

@<TRIPOS>MOLECULE
ASD01890219
  32   33    0    0    0
SMALL
NO_CHARGES


@<TRIPOS>ATOM
   1 C1            -0.0171     1.4121     0.0098 C.2     
   2 C2             0.0021    -0.0041     0.0020 C.2     
   3 C3             1.1836    -0.6650    -0.0128 C.2     
   4 O4             1.0291     2.0352     0.0032 O.2     
   5 C5            -1.3082     2.1343     0.0199 C.ar    
   6 C6            -1.3307     3.5300     0.0275 C.ar    
   7 C7            -2.5379     4.1973     0.0369 C.ar    
   8 C8            -3.7250     3.4861     0.0388 C.ar    
   9 C9            -3.7098     2.1025     0.0312 C.ar    
  10 C10           -2.5094     1.4230     0.0159 C.ar    
  11 C11            1.2035    -2.1321    -0.0209 C.ar    
  12 C12            2.4256    -2.8183    -0.0362 C.ar    
  13 C13            2.4396    -4.1835    -0.0432 C.ar    
  14 C14            1.2410    -4.8948    -0.0356 C.ar    
  15 C15            0.0236    -4.2164    -0.0208 C.ar    
  16 C16            0.0006    -2.8513    -0.0074 C.ar    
  17 S17            1.2649    -6.6566    -0.0452 S.3     
  18 C18           -0.4969    -7.0887    -0.0307 C.3     
  19 H19           -0.9258    -0.5567     0.0079 H       
  20 H20            2.1115    -0.1123    -0.0187 H       
  21 H21           -0.4049     4.0862     0.0265 H       
  22 H22           -2.5567     5.2771     0.0433 H       
  23 H23           -4.6675     4.0134     0.0465 H       
  24 H24           -4.6398     1.5534     0.0330 H       
  25 H25           -2.4988     0.3431     0.0051 H       
  26 H26            3.3548    -2.2679    -0.0429 H       
  27 H27            3.3808    -4.7131    -0.0551 H       
  28 H28           -0.9029    -4.7714    -0.0156 H       
  29 H29           -0.9432    -2.3265     0.0086 H       
  30 H30           -0.9636    -6.6809     0.8660 H       
  31 H31           -0.9806    -6.6714    -0.9139 H       
  32 H32           -0.6050    -8.1733    -0.0355 H       
@<TRIPOS>BOND
   1    1    2 1
   2    1    4 2
   3    1    5 1
   4    2    3 2
   5    2   19 1
   6    3   11 1
   7    3   20 1
   8    5    6 ar
   9    5   10 ar
  10    6    7 ar
  11    6   21 1
  12    7    8 ar
  13    7   22 1
  14    8    9 ar
  15    8   23 1
  16    9   10 ar
  17    9   24 1
  18   10   25 1
  19   11   12 ar
  20   11   16 ar
  21   12   13 ar
  22   12   26 1
  23   13   14 ar
  24   13   27 1
  25   14   15 ar
  26   14   17 1
  27   15   16 ar
  28   15   28 1
  29   16   29 1
  30   17   18 1
  31   18   30 1
  32   18   31 1
  33   18   32 1

#	End of record

