#	Name: ASD01901544
#	Creating user name:	WinNT
#	Creation time:	15. 06. 2019 19:53

#	Modifying user name:	WinNT
#	Modification time:	15. 06. 2019 19:53

#	Program:	/corina/corina34_cracker 3.40 0067  02.08.2006

@<TRIPOS>MOLECULE
ASD01901544
  37   40    0    0    0
SMALL
NO_CHARGES


@<TRIPOS>ATOM
   1 C1             0.9762     1.1627    -0.3114 C.3     
   2 C2             0.9191    -0.3630    -0.4115 C.3     
   3 C3             1.3355    -0.7978    -1.8180 C.3     
   4 C4             1.2792    -2.3005    -1.9166 C.2     
   5 N5             2.3096    -3.0150    -1.6227 N.2     
   6 S6             1.9095    -4.6486    -1.8391 S.3     
   7 C7             0.2485    -4.3478    -2.3585 C.ar    
   8 C8            -0.7976    -5.1720    -2.7399 C.ar    
   9 C9            -2.0117    -4.6123    -3.1015 C.ar    
  10 N10           -3.0740    -5.4324    -3.4874 N.pl3   
  11 C11           -3.1784    -6.7289    -2.9743 C.2     
  12 N12           -2.4153    -7.2574    -2.0548 N.2     
  13 N13           -2.8174    -8.5718    -1.7958 N.pl3   
  14 H14           -2.4051    -9.1698    -1.1529 H       
  15 C15           -3.8866    -8.8797    -2.5948 C.ar    
  16 C16           -4.6756   -10.0176    -2.7593 C.ar    
  17 C17           -5.7008    -9.9738    -3.6836 C.ar    
  18 C18           -5.9166    -8.8134    -4.4155 C.ar    
  19 N19           -5.1638    -7.7499    -4.2487 N.ar    
  20 C20           -4.1670    -7.7360    -3.3668 C.ar    
  21 C21           -2.1702    -3.2252    -3.0783 C.ar    
  22 C22           -1.1509    -2.4078    -2.7064 C.ar    
  23 C23            0.0988    -2.9466    -2.3256 C.ar    
  24 H24            1.9927     1.5021    -0.5106 H       
  25 H25            0.2970     1.6004    -1.0430 H       
  26 H26            0.6796     1.4724     0.6907 H       
  27 H27            1.5982    -0.8008     0.3201 H       
  28 H28           -0.0974    -0.7024    -0.2122 H       
  29 H29            0.6563    -0.3600    -2.5496 H       
  30 H30            2.3519    -0.4584    -2.0173 H       
  31 H31           -0.6671    -6.2440    -2.7556 H       
  32 H32           -3.7394    -5.1026    -4.1114 H       
  33 H33           -4.4897   -10.9096    -2.1796 H       
  34 H34           -6.3311   -10.8374    -3.8367 H       
  35 H35           -6.7198    -8.7849    -5.1369 H       
  36 H36           -3.1194    -2.7947    -3.3613 H       
  37 H37           -1.2981    -1.3379    -2.6973 H       
@<TRIPOS>BOND
   1    1    2 1
   2    1   24 1
   3    1   25 1
   4    1   26 1
   5    2    3 1
   6    2   27 1
   7    2   28 1
   8    3    4 1
   9    3   29 1
  10    3   30 1
  11    4   23 1
  12    4    5 2
  13    5    6 1
  14    6    7 1
  15    7   23 ar
  16    7    8 ar
  17    8    9 ar
  18    8   31 1
  19    9   10 1
  20    9   21 ar
  21   10   11 1
  22   10   32 1
  23   11   20 1
  24   11   12 2
  25   12   13 1
  26   13   14 1
  27   13   15 1
  28   15   20 ar
  29   15   16 ar
  30   16   17 ar
  31   16   33 1
  32   17   18 ar
  33   17   34 1
  34   18   19 ar
  35   18   35 1
  36   19   20 ar
  37   21   22 ar
  38   21   36 1
  39   22   23 ar
  40   22   37 1

#	End of record

