#	Name: ASD01812079
#	Creating user name:	WinNT
#	Creation time:	15. 06. 2019 19:28

#	Modifying user name:	WinNT
#	Modification time:	15. 06. 2019 19:28

#	Program:	/corina/corina34_cracker 3.40 0067  02.08.2006

@<TRIPOS>MOLECULE
ASD01812079
  42   45    0    0    0
SMALL
NO_CHARGES


@<TRIPOS>ATOM
   1 C1            -0.0167     1.3820     0.0096 C.ar    
   2 C2             0.0021    -0.0041     0.0020 C.ar    
   3 C3             1.1959    -0.6932    -0.0127 C.ar    
   4 C4             2.4016     0.0019    -0.0200 C.ar    
   5 C5             2.3831     1.4075    -0.0128 C.ar    
   6 C6             1.1665     2.0939     0.0022 C.ar    
   7 N7             3.6010    -0.6771    -0.0337 N.pl3   
   8 C8             4.7870    -0.0549    -0.0404 C.2     
   9 C9             4.8957     1.3208    -0.0340 C.2     
  10 C10            3.6667     2.1313    -0.0207 C.2     
  11 C11            3.5775    -2.1419    -0.0409 C.3     
  12 C12            3.5572    -2.6371    -1.4640 C.ar    
  13 O13            3.7091     3.3491    -0.0150 O.2     
  14 C14            6.2161     1.9660    -0.0412 C.2     
  15 O15            6.3092     3.3109    -0.0348 O.3     
  16 O16            7.2244     1.2870    -0.0529 O.2     
  17 F17            1.1476     3.4448     0.0091 F       
  18 C18            4.7443    -2.8835    -2.1277 C.ar    
  19 C19            4.7233    -3.3373    -3.4323 C.ar    
  20 C20            3.5166    -3.5459    -4.0782 C.ar    
  21 C21            2.3291    -3.2994    -3.4143 C.ar    
  22 C22            2.3521    -2.8505    -2.1047 C.ar    
  23 C23            3.2264    -4.0303    -5.4826 C.3     
  24 C24            1.7468    -4.4693    -5.4609 C.3     
  25 C25            1.1602    -3.6014    -4.3274 C.3     
  26 O26            3.4152    -2.9700    -6.4218 O.3     
  27 H27           -0.9604     1.9071     0.0170 H       
  28 H28           -0.9295    -0.5505     0.0080 H       
  29 H29            1.1956    -1.7731    -0.0181 H       
  30 H30            5.6884    -0.6497    -0.0508 H       
  31 H31            4.4660    -2.5220     0.4634 H       
  32 H32            2.6863    -2.4936     0.4789 H       
  33 H33            7.1990     3.6894    -0.0400 H       
  34 H34            5.6873    -2.7211    -1.6270 H       
  35 H35            5.6513    -3.5297    -3.9502 H       
  36 H36            1.4249    -2.6581    -1.5854 H       
  37 H37            3.8681    -4.8756    -5.7313 H       
  38 H38            1.2622    -4.2449    -6.4111 H       
  39 H39            1.6606    -5.5292    -5.2215 H       
  40 H40            0.3913    -4.1538    -3.7874 H       
  41 H41            0.7486    -2.6772    -4.7331 H       
  42 H42            4.3178    -2.6239    -6.4480 H       
@<TRIPOS>BOND
   1    1    2 ar
   2    1    6 ar
   3    1   27 1
   4    2    3 ar
   5    2   28 1
   6    3    4 ar
   7    3   29 1
   8    4    5 ar
   9    4    7 1
  10    5    6 ar
  11    5   10 1
  12    6   17 1
  13    7    8 1
  14    7   11 1
  15    8    9 2
  16    8   30 1
  17    9   10 1
  18    9   14 1
  19   10   13 2
  20   11   12 1
  21   11   31 1
  22   11   32 1
  23   12   18 ar
  24   12   22 ar
  25   14   15 1
  26   14   16 2
  27   15   33 1
  28   18   19 ar
  29   18   34 1
  30   19   20 ar
  31   19   35 1
  32   20   21 ar
  33   20   23 1
  34   21   22 ar
  35   21   25 1
  36   22   36 1
  37   23   24 1
  38   23   26 1
  39   23   37 1
  40   24   25 1
  41   24   38 1
  42   24   39 1
  43   25   40 1
  44   25   41 1
  45   26   42 1

#	End of record

