#	Name: ASD04590023
#	Creating user name:	WinNT
#	Creation time:	15. 06. 2019 20:50

#	Modifying user name:	WinNT
#	Modification time:	15. 06. 2019 20:50

#	Program:	/corina/corina34_cracker 3.40 0067  02.08.2006

@<TRIPOS>MOLECULE
ASD04590023
  66   70    0    0    0
SMALL
NO_CHARGES


@<TRIPOS>ATOM
   1 C1            -0.0187     1.5281     0.0104 C.3     
   2 C2             0.0021    -0.0041     0.0020 C.3     
   3 C3             0.8173    -0.4848     1.2046 C.3     
   4 C4             2.2127     0.0837     1.1303 C.2     
   5 C5             2.4460     1.2813     0.5528 C.2     
   6 C6             1.3971     2.0366    -0.0003 C.2     
   7 N7             3.2429    -0.6417     1.6662 N.pl3   
   8 C8             4.4248    -0.0370     1.9918 C.2     
   9 C9             4.7527     1.1507     1.4545 C.2     
  10 C10            3.8439     1.8424     0.4809 C.3     
  11 O11            1.6385     3.1193    -0.4963 O.2     
  12 C12            4.3806     1.6564    -0.9150 C.ar    
  13 C13            4.7255     2.7580    -1.6754 C.ar    
  14 C14            5.2178     2.5873    -2.9558 C.ar    
  15 C15            5.3656     1.3150    -3.4756 C.ar    
  16 C16            5.0216     0.2133    -2.7148 C.ar    
  17 C17            4.5334     0.3838    -1.4328 C.ar    
  18 C18            5.3661    -0.7060     2.9600 C.3     
  19 C19            5.9773     1.7604     1.8140 C.2     
  20 O20            6.3192     2.9526     1.2823 O.3     
  21 O21            6.7226     1.2098     2.6028 O.2     
  22 C22            7.5703     3.5100     1.6901 C.3     
  23 C23           -1.4066    -0.5302     0.1022 C.ar    
  24 C24           -1.9196    -1.3277    -0.9036 C.ar    
  25 C25           -2.1836    -0.2199     1.2025 C.ar    
  26 C26           -3.4758    -0.7025     1.2944 C.ar    
  27 C27           -3.9909    -1.4950     0.2857 C.ar    
  28 C28           -3.2118    -1.8103    -0.8117 C.ar    
  29 C29            7.7835     4.8526     0.9879 C.3     
  30 C30            9.1028     5.4404     1.4180 C.ar    
  31 C31           10.2531     5.1494     0.7088 C.ar    
  32 C32            9.1617     6.2752     2.5182 C.ar    
  33 C33           10.3719     6.8144     2.9127 C.ar    
  34 C34           11.5232     6.5185     2.2071 C.ar    
  35 C35           11.4633     5.6886     1.1032 C.ar    
  36 N36            5.8918     1.1322    -4.8470 N.pl3   
  37 O37            6.1945     2.1030    -5.5175 O.2     
  38 O38            6.0221     0.0112    -5.3049 O.2     
  39 H39           -0.5433     1.8907    -0.8735 H       
  40 H40           -0.5263     1.8811     0.9081 H       
  41 H41            0.4641    -0.3590    -0.9192 H       
  42 H42            0.3379    -0.1509     2.1248 H       
  43 H43            0.8681    -1.5736     1.1967 H       
  44 H44            3.1329    -1.5937     1.8164 H       
  45 H45            3.8146     2.9070     0.7131 H       
  46 H46            4.6100     3.7521    -1.2694 H       
  47 H47            5.4865     3.4480    -3.5502 H       
  48 H48            5.1367    -0.7808    -3.1210 H       
  49 H49            4.2646    -0.4769    -0.8384 H       
  50 H50            4.9367    -1.6523     3.2892 H       
  51 H51            6.3211    -0.8919     2.4686 H       
  52 H52            5.5214    -0.0579     3.8225 H       
  53 H53            7.5661     3.6612     2.7695 H       
  54 H54            8.3768     2.8276     1.4218 H       
  55 H55           -1.3111    -1.5735    -1.7613 H       
  56 H56           -1.7811     0.3993     1.9906 H       
  57 H57           -4.0826    -0.4606     2.1544 H       
  58 H58           -5.0003    -1.8723     0.3577 H       
  59 H59           -3.6143    -2.4295    -1.5998 H       
  60 H60            7.7876     4.7015    -0.0915 H       
  61 H61            6.9770     5.5350     1.2562 H       
  62 H62           10.2064     4.5005    -0.1533 H       
  63 H63            8.2622     6.5063     3.0695 H       
  64 H64           10.4178     7.4671     3.7719 H       
  65 H65           12.4687     6.9401     2.5151 H       
  66 H66           12.3628     5.4575     0.5520 H       
@<TRIPOS>BOND
   1    1    2 1
   2    1    6 1
   3    1   39 1
   4    1   40 1
   5    2    3 1
   6    2   23 1
   7    2   41 1
   8    3    4 1
   9    3   42 1
  10    3   43 1
  11    4    5 2
  12    4    7 1
  13    5    6 1
  14    5   10 1
  15    6   11 2
  16    7    8 1
  17    7   44 1
  18    8    9 2
  19    8   18 1
  20    9   10 1
  21    9   19 1
  22   10   12 1
  23   10   45 1
  24   12   13 ar
  25   12   17 ar
  26   13   14 ar
  27   13   46 1
  28   14   15 ar
  29   14   47 1
  30   15   16 ar
  31   15   36 1
  32   16   17 ar
  33   16   48 1
  34   17   49 1
  35   18   50 1
  36   18   51 1
  37   18   52 1
  38   19   20 1
  39   19   21 2
  40   20   22 1
  41   22   29 1
  42   22   53 1
  43   22   54 1
  44   23   24 ar
  45   23   25 ar
  46   24   28 ar
  47   24   55 1
  48   25   26 ar
  49   25   56 1
  50   26   27 ar
  51   26   57 1
  52   27   28 ar
  53   27   58 1
  54   28   59 1
  55   29   30 1
  56   29   60 1
  57   29   61 1
  58   30   31 ar
  59   30   32 ar
  60   31   35 ar
  61   31   62 1
  62   32   33 ar
  63   32   63 1
  64   33   34 ar
  65   33   64 1
  66   34   35 ar
  67   34   65 1
  68   35   66 1
  69   36   37 2
  70   36   38 2

#	End of record

