#	Name: ASD00170472
#	Creating user name:	WinNT
#	Creation time:	15. 06. 2019 18:32

#	Modifying user name:	WinNT
#	Modification time:	15. 06. 2019 18:32

#	Program:	/corina/corina34_cracker 3.40 0067  02.08.2006

@<TRIPOS>MOLECULE
ASD00170472
  49   53    0    0    0
SMALL
NO_CHARGES


@<TRIPOS>ATOM
   1 C1            -0.0983     1.9314     0.0823 C.ar    
   2 C2            -0.0634     0.5326     0.1299 C.ar    
   3 C3            -1.2477    -0.1916     0.0848 C.ar    
   4 C4            -2.4541     0.4673    -0.0067 C.ar    
   5 C5            -2.5009     1.8572    -0.0547 C.ar    
   6 C6            -1.3188     2.5928    -0.0042 C.ar    
   7 C7            -3.8801    -0.0176    -0.0736 C.3     
   8 C8            -4.7315     1.2300    -0.1636 C.2     
   9 C9            -3.9250     2.3077    -0.1519 C.2     
  10 S10           -6.4086     1.7616    -0.2777 S.3     
  11 C11           -5.8770     3.4382    -0.3013 C.2     
  12 N12           -4.5896     3.4819    -0.2284 N.2     
  13 N13           -6.7114     4.5410    -0.3860 N.pl3   
  14 N14            1.1616    -0.1342     0.2222 N.am    
  15 C15            1.2511    -1.2862     0.9161 C.2     
  16 O16            0.2974    -1.6894     1.5478 O.2     
  17 C17            2.5363    -2.0732     0.9072 C.3     
  18 C18            1.1647     2.7073     0.1302 C.ar    
  19 C19            1.4088     3.7031    -0.8143 C.ar    
  20 C20            2.5839     4.4233    -0.7669 C.ar    
  21 C21            3.5234     4.1575     0.2203 C.ar    
  22 C22            3.2830     3.1662     1.1625 C.ar    
  23 C23            2.1075     2.4463     1.1234 C.ar    
  24 O24            4.6804     4.8684     0.2643 O.3     
  25 C25            5.8427     4.2116     0.0110 C.ar    
  26 C26            5.8170     2.8856    -0.3970 C.ar    
  27 C27            7.0000     2.2204    -0.6542 C.ar    
  28 C28            8.2090     2.8747    -0.5054 C.ar    
  29 C29            8.2374     4.1959    -0.0985 C.ar    
  30 C30            7.0570     4.8674     0.1545 C.ar    
  31 H31           -1.2229    -1.2707     0.1210 H       
  32 H32           -1.3494     3.6717    -0.0411 H       
  33 H33           -4.0260    -0.6377    -0.9581 H       
  34 H34           -4.1295    -0.5796     0.8265 H       
  35 H35           -7.6723     4.4192    -0.4381 H       
  36 H36           -6.3347     5.4348    -0.3931 H       
  37 H37            1.9472     0.2321    -0.2131 H       
  38 H38            3.1712    -1.7415     1.7287 H       
  39 H39            2.3137    -3.1337     1.0253 H       
  40 H40            3.0534    -1.9137    -0.0390 H       
  41 H41            0.6786     3.9101    -1.5827 H       
  42 H42            2.7737     5.1946    -1.4986 H       
  43 H43            4.0156     2.9617     1.9292 H       
  44 H44            1.9209     1.6757     1.8567 H       
  45 H45            4.8730     2.3740    -0.5130 H       
  46 H46            6.9806     1.1882    -0.9714 H       
  47 H47            9.1328     2.3528    -0.7070 H       
  48 H48            9.1830     4.7044     0.0176 H       
  49 H49            7.0798     5.8994     0.4720 H       
@<TRIPOS>BOND
   1    1    2 ar
   2    1   18 1
   3    1    6 ar
   4    2    3 ar
   5    2   14 1
   6    3    4 ar
   7    3   31 1
   8    4    5 ar
   9    4    7 1
  10    5    6 ar
  11    5    9 1
  12    6   32 1
  13    7    8 1
  14    7   33 1
  15    7   34 1
  16    8    9 2
  17    8   10 1
  18    9   12 1
  19   10   11 1
  20   11   12 2
  21   11   13 1
  22   13   35 1
  23   13   36 1
  24   14   15 am
  25   14   37 1
  26   15   16 2
  27   15   17 1
  28   17   38 1
  29   17   39 1
  30   17   40 1
  31   18   19 ar
  32   18   23 ar
  33   19   20 ar
  34   19   41 1
  35   20   21 ar
  36   20   42 1
  37   21   22 ar
  38   21   24 1
  39   22   23 ar
  40   22   43 1
  41   23   44 1
  42   24   25 1
  43   25   26 ar
  44   25   30 ar
  45   26   27 ar
  46   26   45 1
  47   27   28 ar
  48   27   46 1
  49   28   29 ar
  50   28   47 1
  51   29   30 ar
  52   29   48 1
  53   30   49 1

#	End of record

