#	Name: ASD03240533
#	Creating user name:	WinNT
#	Creation time:	15. 06. 2019 20:35

#	Modifying user name:	WinNT
#	Modification time:	15. 06. 2019 20:35

#	Program:	/corina/corina34_cracker 3.40 0067  02.08.2006

@<TRIPOS>MOLECULE
ASD03240533
  74   81    0    0    0
SMALL
NO_CHARGES


@<TRIPOS>ATOM
   1 C1            -0.0166     1.3755     0.0096 C.ar    
   2 C2             0.0021    -0.0041     0.0020 C.ar    
   3 N3             1.1422    -0.6683    -0.0054 N.ar    
   4 C4             2.3145    -0.0481    -0.0053 C.ar    
   5 C5             2.3702     1.3442    -0.0124 C.ar    
   6 C6             1.1861     2.0698     0.0018 C.ar    
   7 N7             3.4820    -0.8058     0.0230 N.pl3   
   8 C8             4.3590    -0.7189     1.1008 C.ar    
   9 C9             4.9948     0.4897     1.4045 C.ar    
  10 C10            4.7634     1.6838     0.5623 C.2     
  11 N11            3.5939     2.0276    -0.0512 N.pl3   
  12 C12            4.6049    -1.8382     1.8846 C.ar    
  13 C13            5.4644    -1.7524     2.9632 C.ar    
  14 C14            6.0848    -0.5541     3.2719 C.ar    
  15 C15            5.8554     0.5665     2.4992 C.ar    
  16 N16            5.6749     2.5946     0.2852 N.2     
  17 C17            5.1450     3.5398    -0.5061 C.2     
  18 C18            3.8229     3.2040    -0.7376 C.2     
  19 C19            2.8505     3.9536    -1.5560 C.ar    
  20 C20            2.7515     5.3418    -1.4323 C.ar    
  21 C21            2.0284     3.2794    -2.4624 C.ar    
  22 C22            1.1222     3.9867    -3.2244 C.ar    
  23 C23            1.0263     5.3609    -3.0931 C.ar    
  24 C24            1.8406     6.0360    -2.2008 C.ar    
  25 C25            5.8495     4.7301    -1.0368 C.ar    
  26 C26            0.0339     6.1267    -3.9296 C.3     
  27 N27           -1.0450     5.2786    -4.4538 N.3     
  28 C28           -0.4671     7.4186    -3.2625 C.3     
  29 C29           -0.3792     8.0759    -4.6499 C.3     
  30 C30            0.6876     7.0212    -4.9961 C.3     
  31 C31            6.8190     5.3705    -0.2650 C.ar    
  32 C32            7.4731     6.4779    -0.7624 C.ar    
  33 C33            7.1677     6.9555    -2.0297 C.ar    
  34 C34            6.2033     6.3206    -2.8007 C.ar    
  35 C35            5.5490     5.2096    -2.3118 C.ar    
  36 O36            7.8139     8.0474    -2.5166 O.3     
  37 C37            7.4508     8.4853    -3.8275 C.3     
  38 C38            8.2654     9.6985    -4.1954 C.ar    
  39 C39            9.4818     9.5466    -4.8343 C.ar    
  40 C40           10.2291    10.6595    -5.1718 C.ar    
  41 C41            9.7597    11.9244    -4.8708 C.ar    
  42 C42            8.5429    12.0764    -4.2328 C.ar    
  43 C43            7.7936    10.9637    -3.8991 C.ar    
  44 H44           -0.9556     1.9091     0.0170 H       
  45 H45           -0.9306    -0.5486     0.0025 H       
  46 H46            1.2002     3.1497     0.0061 H       
  47 H47            3.6865    -1.4005    -0.7156 H       
  48 H48            4.1238    -2.7766     1.6513 H       
  49 H49            5.6531    -2.6259     3.5696 H       
  50 H50            6.7506    -0.4957     4.1202 H       
  51 H51            6.3403     1.5005     2.7424 H       
  52 H52            3.3864     5.8699    -0.7363 H       
  53 H53            2.1027     2.2070    -2.5665 H       
  54 H54            0.4861     3.4668    -3.9255 H       
  55 H55            1.7603     7.1086    -2.1035 H       
  56 H56           -0.6721     4.4561    -4.9038 H       
  57 H57           -1.6950     5.0281    -3.7239 H       
  58 H58           -1.4843     7.3452    -2.8777 H       
  59 H59            0.2320     7.8348    -2.5371 H       
  60 H60           -1.2925     7.9802    -5.2371 H       
  61 H61            0.0052     9.0956    -4.6264 H       
  62 H62            1.7028     7.3283    -4.7448 H       
  63 H63            0.6014     6.6293    -6.0095 H       
  64 H64            7.0568     4.9997     0.7210 H       
  65 H65            8.2236     6.9744    -0.1652 H       
  66 H66            5.9679     6.6951    -3.7860 H       
  67 H67            4.7992     4.7160    -2.9122 H       
  68 H68            7.6442     7.6868    -4.5438 H       
  69 H69            6.3911     8.7402    -3.8449 H       
  70 H70            9.8485     8.5583    -5.0694 H       
  71 H71           11.1797    10.5407    -5.6703 H       
  72 H72           10.3439    12.7939    -5.1338 H       
  73 H73            8.1763    13.0647    -3.9973 H       
  74 H74            6.8429    11.0824    -3.4007 H       
@<TRIPOS>BOND
   1    1    2 ar
   2    1    6 ar
   3    1   44 1
   4    2    3 ar
   5    2   45 1
   6    3    4 ar
   7    4    5 ar
   8    4    7 1
   9    5    6 ar
  10    5   11 1
  11    6   46 1
  12    7    8 1
  13    7   47 1
  14    8    9 ar
  15    8   12 ar
  16    9   10 1
  17    9   15 ar
  18   10   11 1
  19   10   16 2
  20   11   18 1
  21   12   13 ar
  22   12   48 1
  23   13   14 ar
  24   13   49 1
  25   14   15 ar
  26   14   50 1
  27   15   51 1
  28   16   17 1
  29   17   18 2
  30   17   25 1
  31   18   19 1
  32   19   20 ar
  33   19   21 ar
  34   20   24 ar
  35   20   52 1
  36   21   22 ar
  37   21   53 1
  38   22   23 ar
  39   22   54 1
  40   23   24 ar
  41   23   26 1
  42   24   55 1
  43   25   31 ar
  44   25   35 ar
  45   26   27 1
  46   26   28 1
  47   26   30 1
  48   27   56 1
  49   27   57 1
  50   28   29 1
  51   28   58 1
  52   28   59 1
  53   29   30 1
  54   29   60 1
  55   29   61 1
  56   30   62 1
  57   30   63 1
  58   31   32 ar
  59   31   64 1
  60   32   33 ar
  61   32   65 1
  62   33   34 ar
  63   33   36 1
  64   34   35 ar
  65   34   66 1
  66   35   67 1
  67   36   37 1
  68   37   38 1
  69   37   68 1
  70   37   69 1
  71   38   39 ar
  72   38   43 ar
  73   39   40 ar
  74   39   70 1
  75   40   41 ar
  76   40   71 1
  77   41   42 ar
  78   41   72 1
  79   42   43 ar
  80   42   73 1
  81   43   74 1

#	End of record

