#	Name: ASD01208529
#	Creating user name:	WinNT
#	Creation time:	15. 06. 2019 19:10

#	Modifying user name:	WinNT
#	Modification time:	15. 06. 2019 19:10

#	Program:	/corina/corina34_cracker 3.40 0067  02.08.2006

@<TRIPOS>MOLECULE
ASD01208529
  70   73    0    0    0
SMALL
NO_CHARGES


@<TRIPOS>ATOM
   1 N1            -0.0829     1.5288    -0.4738 N.pl3   
   2 C2            -0.0812     0.1590    -0.6131 C.2     
   3 C3             1.2323    -0.2622    -0.6690 C.2     
   4 C4             2.0387     0.8694    -0.5620 C.2     
   5 C5             1.2096     1.9637    -0.4424 C.2     
   6 C6            -1.2659    -0.7010    -0.6887 C.2     
   7 O7            -1.1370    -1.9049    -0.8124 O.2     
   8 N8            -2.4978    -0.1585    -0.6213 N.am    
   9 C9            -3.6818    -1.0179    -0.6968 C.3     
  10 C10           -4.9434    -0.1581    -0.5968 C.3     
  11 C11           -6.1799    -1.0557    -0.6758 C.3     
  12 O12           -4.9435     0.5446     0.6475 O.3     
  13 C13            1.6464     3.3692    -0.3046 C.ar    
  14 C14            0.6997     4.3883    -0.1923 C.ar    
  15 C15            1.1133     5.7039    -0.0634 C.ar    
  16 C16            2.4672     6.0091    -0.0459 C.ar    
  17 C17            3.4114     4.9990    -0.1577 C.ar    
  18 C18            3.0063     3.6800    -0.2807 C.ar    
  19 O19            4.7358     5.3033    -0.1408 O.3     
  20 C20            5.6532     4.2077    -0.1388 C.3     
  21 C21            6.9769     4.6520     0.4869 C.3     
  22 C22            5.8985     3.7452    -1.5764 C.3     
  23 O23            7.5820     5.6503    -0.3373 O.3     
  24 C24            8.8305     6.1360     0.1599 C.3     
  25 O25            0.1924     6.6971     0.0455 O.3     
  26 C26           -0.5771     6.7329     1.1632 C.ar    
  27 C27           -1.6166     7.6538     1.2615 C.ar    
  28 C28           -2.3997     7.6924     2.3954 C.ar    
  29 C29           -2.1482     6.8054     3.4460 C.ar    
  30 C30           -1.1040     5.8833     3.3424 C.ar    
  31 C31           -0.3291     5.8467     2.2039 C.ar    
  32 F32           -1.8578     8.5106     0.2451 F       
  33 C33           -2.9836     6.8433     4.6622 C.2     
  34 O34           -2.6731     6.1816     5.6339 O.2     
  35 N35           -4.0906     7.6113     4.6957 N.am    
  36 C36           -5.1731     7.8674     5.6578 C.3     
  37 C37           -6.0777     8.2105     4.4661 C.3     
  38 C38           -4.7441     8.5671     3.7889 C.3     
  39 H39           -0.8711     2.0907    -0.4124 H       
  40 H40            1.5725    -1.2816    -0.7755 H       
  41 H41            3.1186     0.8858    -0.5708 H       
  42 H42           -2.6005     0.8010    -0.5227 H       
  43 H43           -3.6817    -1.5539    -1.6460 H       
  44 H44           -3.6640    -1.7340     0.1248 H       
  45 H45           -4.9611     0.5579    -1.4184 H       
  46 H46           -6.1621    -1.7717     0.1459 H       
  47 H47           -7.0787    -0.4431    -0.6045 H       
  48 H48           -6.1798    -1.5917    -1.6249 H       
  49 H49           -4.9282    -0.0311     1.4243 H       
  50 H50           -0.3539     4.1516    -0.2063 H       
  51 H51            2.7864     7.0359     0.0548 H       
  52 H52            3.7422     2.8937    -0.3625 H       
  53 H53            5.2353     3.3849     0.4413 H       
  54 H54            6.7898     5.0641     1.4785 H       
  55 H55            7.6454     3.7951     0.5697 H       
  56 H56            6.3165     4.5680    -2.1565 H       
  57 H57            6.5983     2.9095    -1.5749 H       
  58 H58            4.9556     3.4287    -2.0222 H       
  59 H59            8.6819     6.5788     1.1447 H       
  60 H60            9.5375     5.3098     0.2359 H       
  61 H61            9.2246     6.8898    -0.5218 H       
  62 H62           -3.2059     8.4070     2.4720 H       
  63 H63           -0.9070     5.1967     4.1524 H       
  64 H64            0.4751     5.1306     2.1219 H       
  65 H65           -5.4902     6.9775     6.2014 H       
  66 H66           -4.9790     8.7159     6.3138 H       
  67 H67           -6.5882     7.3515     4.0306 H       
  68 H68           -6.7336     9.0646     4.6342 H       
  69 H69           -4.4370     9.6001     3.9524 H       
  70 H70           -4.6958     8.2733     2.7404 H       
@<TRIPOS>BOND
   1    1    2 1
   2    1    5 1
   3    1   39 1
   4    2    3 2
   5    2    6 1
   6    3    4 1
   7    3   40 1
   8    4    5 2
   9    4   41 1
  10    5   13 1
  11    6    7 2
  12    6    8 am
  13    8    9 1
  14    8   42 1
  15    9   10 1
  16    9   43 1
  17    9   44 1
  18   10   11 1
  19   10   12 1
  20   10   45 1
  21   11   46 1
  22   11   47 1
  23   11   48 1
  24   12   49 1
  25   13   14 ar
  26   13   18 ar
  27   14   15 ar
  28   14   50 1
  29   15   16 ar
  30   15   25 1
  31   16   17 ar
  32   16   51 1
  33   17   18 ar
  34   17   19 1
  35   18   52 1
  36   19   20 1
  37   20   21 1
  38   20   22 1
  39   20   53 1
  40   21   23 1
  41   21   54 1
  42   21   55 1
  43   22   56 1
  44   22   57 1
  45   22   58 1
  46   23   24 1
  47   24   59 1
  48   24   60 1
  49   24   61 1
  50   25   26 1
  51   26   27 ar
  52   26   31 ar
  53   27   28 ar
  54   27   32 1
  55   28   29 ar
  56   28   62 1
  57   29   30 ar
  58   29   33 1
  59   30   31 ar
  60   30   63 1
  61   31   64 1
  62   33   34 2
  63   33   35 am
  64   35   36 1
  65   35   38 1
  66   36   37 1
  67   36   65 1
  68   36   66 1
  69   37   38 1
  70   37   67 1
  71   37   68 1
  72   38   69 1
  73   38   70 1

#	End of record

