#	Name: ASD00230007
#	Creating user name:	WinNT
#	Creation time:	15. 06. 2019 18:33

#	Modifying user name:	WinNT
#	Modification time:	15. 06. 2019 18:33

#	Program:	/corina/corina34_cracker 3.40 0067  02.08.2006

@<TRIPOS>MOLECULE
ASD00230007
  80   83    0    0    0
SMALL
NO_CHARGES


@<TRIPOS>ATOM
   1 C1            -0.8704     2.5186    -0.7360 C.3     
   2 C2            -0.8153     1.0235    -0.4159 C.3     
   3 C3            -2.2385     0.4760    -0.2906 C.3     
   4 C4            -2.1834    -1.0192     0.0295 C.3     
   5 C5            -3.5852    -1.5584     0.1529 C.2     
   6 C6            -3.9607    -2.5797    -0.5766 C.2     
   7 C7            -5.3625    -3.1190    -0.4531 C.3     
   8 C8            -6.0254    -3.1366    -1.8320 C.3     
   9 C9            -7.4486    -3.6841    -1.7066 C.3     
  10 C10           -8.1115    -3.7017    -3.0855 C.3     
  11 N11           -9.4890    -4.2841    -2.9706 Du      
  12 C12           -9.7881    -3.8540    -4.3761 C.3     
  13 C13           -8.8954    -5.6368    -2.7104 C.3     
  14 C14          -10.8665    -4.8665    -2.8557 C.3     
  15 C15            4.0759     5.0358    -1.5837 C.ar    
  16 C16            2.8283     4.4333    -1.5119 C.ar    
  17 C17            2.6795     3.0770    -1.8207 C.ar    
  18 C18            3.7813     2.3305    -2.1690 C.ar    
  19 C19            5.0340     2.9326    -2.2317 C.ar    
  20 C20            5.1777     4.2846    -1.9437 C.ar    
  21 C21            1.3024     2.4706    -1.7916 C.3     
  22 N22            0.4909     3.0706    -0.7327 N.3     
  23 C23            0.4652     4.4613    -0.7664 C.ar    
  24 C24            1.6109     5.1848    -1.1280 C.ar    
  25 C25           -0.6943     5.1458    -0.4359 C.ar    
  26 C26           -0.7078     6.5341    -0.4470 C.ar    
  27 C27            0.4371     7.2460    -0.7875 C.ar    
  28 C28            1.5939     6.5738    -1.1281 C.ar    
  29 C29            0.6313     2.7012    -3.1211 C.ar    
  30 C30            0.3090     3.9851    -3.5192 C.ar    
  31 C31           -0.3066     4.1966    -4.7387 C.ar    
  32 C32           -0.5996     3.1241    -5.5603 C.ar    
  33 C33           -0.2765     1.8403    -5.1625 C.ar    
  34 C34            0.3431     1.6292    -3.9449 C.ar    
  35 N35            6.1526     2.1746    -2.5857 N.pl3   
  36 N36           -1.8779     7.2194    -0.1147 N.pl3   
  37 H37           -1.3188     2.6635    -1.7189 H       
  38 H38           -1.4714     3.0294     0.0164 H       
  39 H39           -0.2936     0.4995    -1.2167 H       
  40 H40           -0.2839     0.8724     0.5237 H       
  41 H41           -2.7602     1.0000     0.5102 H       
  42 H42           -2.7700     0.6270    -1.2302 H       
  43 H43           -1.6617    -1.5432    -0.7713 H       
  44 H44           -1.6520    -1.1702     0.9691 H       
  45 H45           -4.2802    -1.1030     0.8428 H       
  46 H46           -3.2657    -3.0352    -1.2664 H       
  47 H47           -5.3280    -4.1325    -0.0536 H       
  48 H48           -5.9386    -2.4829     0.2189 H       
  49 H49           -6.0599    -2.1230    -2.2315 H       
  50 H50           -5.4493    -3.7726    -2.5040 H       
  51 H51           -7.4141    -4.6976    -1.3071 H       
  52 H52           -8.0247    -3.0480    -1.0346 H       
  53 H53           -8.1783    -2.6838    -3.4695 H       
  54 H54           -7.5160    -4.3089    -3.7672 H       
  55 H55           -9.7050    -3.6075    -2.1306 H       
  56 H56          -10.5022    -4.5454    -4.8235 H       
  57 H57          -10.2119    -2.8498    -4.3664 H       
  58 H58           -8.8676    -3.8542    -4.9598 H       
  59 H59           -7.8990    -5.6869    -3.1497 H       
  60 H60           -8.8273    -5.8031    -1.6354 H       
  61 H61           -9.5284    -6.4035    -3.1573 H       
  62 H62          -10.9953    -5.3023    -1.8649 H       
  63 H63          -11.6069    -4.0808    -3.0060 H       
  64 H64          -10.9984    -5.6397    -3.6126 H       
  65 H65            4.1843     6.0875    -1.3637 H       
  66 H66            3.6741     1.2794    -2.3930 H       
  67 H67            6.1514     4.7482    -2.0015 H       
  68 H68            1.3866     1.3984    -1.6147 H       
  69 H69           -1.5871     4.5991    -0.1703 H       
  70 H70            0.4215     8.3259    -0.7855 H       
  71 H71            2.4830     7.1262    -1.3938 H       
  72 H72            0.5379     4.8230    -2.8774 H       
  73 H73           -0.5590     5.1996    -5.0495 H       
  74 H74           -1.0812     3.2893    -6.5127 H       
  75 H75           -0.5057     1.0024    -5.8042 H       
  76 H76            0.5989     0.6265    -3.6358 H       
  77 H77            6.0549     1.2308    -2.7871 H       
  78 H78            7.0271     2.5921    -2.6301 H       
  79 H79           -2.6783     6.7256     0.1229 H       
  80 H80           -1.8905     8.1893    -0.1215 H       
@<TRIPOS>BOND
   1    1    2 1
   2    1   22 1
   3    1   37 1
   4    1   38 1
   5    2    3 1
   6    2   39 1
   7    2   40 1
   8    3    4 1
   9    3   41 1
  10    3   42 1
  11    4    5 1
  12    4   43 1
  13    4   44 1
  14    5    6 2
  15    5   45 1
  16    6    7 1
  17    6   46 1
  18    7    8 1
  19    7   47 1
  20    7   48 1
  21    8    9 1
  22    8   49 1
  23    8   50 1
  24    9   10 1
  25    9   51 1
  26    9   52 1
  27   10   11 1
  28   10   53 1
  29   10   54 1
  30   11   12 1
  31   11   13 1
  32   11   14 1
  33   11   55 1
  34   12   56 1
  35   12   57 1
  36   12   58 1
  37   13   59 1
  38   13   60 1
  39   13   61 1
  40   14   62 1
  41   14   63 1
  42   14   64 1
  43   15   16 ar
  44   15   20 ar
  45   15   65 1
  46   16   17 ar
  47   16   24 1
  48   17   18 ar
  49   17   21 1
  50   18   19 ar
  51   18   66 1
  52   19   20 ar
  53   19   35 1
  54   20   67 1
  55   21   22 1
  56   21   29 1
  57   21   68 1
  58   22   23 1
  59   23   24 ar
  60   23   25 ar
  61   24   28 ar
  62   25   26 ar
  63   25   69 1
  64   26   27 ar
  65   26   36 1
  66   27   28 ar
  67   27   70 1
  68   28   71 1
  69   29   30 ar
  70   29   34 ar
  71   30   31 ar
  72   30   72 1
  73   31   32 ar
  74   31   73 1
  75   32   33 ar
  76   32   74 1
  77   33   34 ar
  78   33   75 1
  79   34   76 1
  80   35   77 1
  81   35   78 1
  82   36   79 1
  83   36   80 1

#	End of record

