#	Name: ASD01230778
#	Creating user name:	WinNT
#	Creation time:	15. 06. 2019 19:15

#	Modifying user name:	WinNT
#	Modification time:	15. 06. 2019 19:15

#	Program:	/corina/corina34_cracker 3.40 0067  02.08.2006

@<TRIPOS>MOLECULE
ASD01230778
  43   45    0    0    0
SMALL
NO_CHARGES


@<TRIPOS>ATOM
   1 C1            -0.0190     1.3777     0.0113 C.2     
   2 C2            -0.0016     0.0000    -0.0060 C.2     
   3 C3            -1.2189    -0.6951     0.0011 C.2     
   4 C4            -2.3885    -0.0332     0.0133 C.2     
   5 N5            -2.4647     1.3374     0.0136 N.pl3   
   6 C6            -1.3191     2.0808     0.0447 C.2     
   7 C7            -3.8120     1.9122    -0.0267 C.3     
   8 C8            -3.8755     3.1922     0.8117 C.3     
   9 S9            -2.6213     4.3317     0.1459 S.o2    
  10 N10           -1.2622     3.3892     0.1032 N.am    
  11 C11            1.2479     2.1439     0.0029 C.ar    
  12 O12           -2.8920     4.6406    -1.2144 O.2     
  13 O13           -2.3155     5.3510     1.0876 O.2     
  14 C14            1.5669     2.9558    -1.0858 C.ar    
  15 C15            2.7476     3.6683    -1.0899 C.ar    
  16 C16            3.6183     3.5784    -0.0125 C.ar    
  17 C17            3.3042     2.7713     1.0730 C.ar    
  18 C18            2.1232     2.0602     1.0865 C.ar    
  19 O19            4.7812     4.2817    -0.0202 O.3     
  20 C20            5.0992     4.9963    -1.2161 C.3     
  21 C21            4.4112     6.3627    -1.1919 C.3     
  22 C22            6.6142     5.1897    -1.3070 C.3     
  23 C23            4.2528     2.6771     2.2402 C.3     
  24 H24            0.9357    -0.5361    -0.0250 H       
  25 H25           -1.2167    -1.7751    -0.0038 H       
  26 H26           -3.3060    -0.6030     0.0230 H       
  27 H27           -4.0728     2.1452    -1.0591 H       
  28 H28           -4.5240     1.1877     0.3686 H       
  29 H29           -4.8656     3.6408     0.7303 H       
  30 H30           -3.6544     2.9645     1.8545 H       
  31 H31            0.8901     3.0260    -1.9246 H       
  32 H32            2.9954     4.2968    -1.9325 H       
  33 H33            1.8796     1.4326     1.9311 H       
  34 H34            4.7526     4.4302    -2.0807 H       
  35 H35            4.7578     6.9288    -0.3273 H       
  36 H36            4.6538     6.9078    -2.1041 H       
  37 H37            3.3319     6.2249    -1.1271 H       
  38 H38            7.1043     4.2163    -1.3242 H       
  39 H39            6.8568     5.7348    -2.2192 H       
  40 H40            6.9608     5.7558    -0.4424 H       
  41 H41            4.0055     3.4458     2.9723 H       
  42 H42            4.1643     1.6937     2.7019 H       
  43 H43            5.2748     2.8237     1.8906 H       
@<TRIPOS>BOND
   1    1    2 2
   2    1   11 1
   3    1    6 1
   4    2    3 1
   5    2   24 1
   6    3    4 2
   7    3   25 1
   8    4    5 1
   9    4   26 1
  10    5    6 1
  11    5    7 1
  12    6   10 2
  13    7    8 1
  14    7   27 1
  15    7   28 1
  16    8    9 1
  17    8   29 1
  18    8   30 1
  19    9   10 am
  20    9   12 2
  21    9   13 2
  22   11   14 ar
  23   11   18 ar
  24   14   15 ar
  25   14   31 1
  26   15   16 ar
  27   15   32 1
  28   16   17 ar
  29   16   19 1
  30   17   18 ar
  31   17   23 1
  32   18   33 1
  33   19   20 1
  34   20   21 1
  35   20   22 1
  36   20   34 1
  37   21   35 1
  38   21   36 1
  39   21   37 1
  40   22   38 1
  41   22   39 1
  42   22   40 1
  43   23   41 1
  44   23   42 1
  45   23   43 1

#	End of record

