#	Name: ASD01410492
#	Creating user name:	WinNT
#	Creation time:	15. 06. 2019 19:17

#	Modifying user name:	WinNT
#	Modification time:	15. 06. 2019 19:17

#	Program:	/corina/corina34_cracker 3.40 0067  02.08.2006

@<TRIPOS>MOLECULE
ASD01410492
  68   71    0    0    0
SMALL
NO_CHARGES


@<TRIPOS>ATOM
   1 C1             1.7203     4.8851    -1.3184 C.ar    
   2 C2             1.9155     4.1570    -2.4838 C.ar    
   3 C3             2.9584     3.2541    -2.5496 C.ar    
   4 N4             3.7663     3.0780    -1.5217 N.ar    
   5 C5             3.6126     3.7532    -0.3944 C.ar    
   6 C6             2.5849     4.6776    -0.2577 C.ar    
   7 O7             4.4665     3.5402     0.6381 O.3     
   8 C8             5.3951     2.5553     0.5059 C.ar    
   9 C9             6.5692     2.7988    -0.2025 C.ar    
  10 C10            7.5193     1.8042    -0.3419 C.ar    
  11 C11            7.3080     0.5555     0.2243 C.ar    
  12 C12            6.1261     0.3048     0.9395 C.ar    
  13 C13            5.1734     1.3186     1.0796 C.ar    
  14 F14            6.7805     4.0127    -0.7565 F       
  15 N15            8.2653    -0.4468     0.0834 N.am    
  16 C16            9.3144    -0.5001     0.9277 C.2     
  17 C17            8.1315    -1.4427    -0.9827 C.3     
  18 O18           10.1619    -1.3611     0.7906 O.2     
  19 C19            9.4346     0.4867     2.0188 C.ar    
  20 C20            8.3531     1.3095     2.3432 C.ar    
  21 C21            8.4713     2.2285     3.3633 C.ar    
  22 C22            9.6594     2.3391     4.0681 C.ar    
  23 C23           10.7356     1.5288     3.7541 C.ar    
  24 C24           10.6298     0.5985     2.7367 C.ar    
  25 C25            6.7918    -1.2496    -1.6959 C.3     
  26 C26            0.9988     4.3491    -3.6644 C.3     
  27 Br27           9.8102     3.6042     5.4654 Br      
  28 N28            1.5310     5.4052    -4.5291 N.pl3   
  29 N29            1.2513     6.6550    -4.4126 N.2     
  30 O30           10.5111    -1.6225    -1.3650 O.3     
  31 C31            9.2732    -1.2715    -1.9867 C.3     
  32 C32           11.6479    -1.4969    -2.2216 C.3     
  33 O33            5.7255    -1.5847    -0.8056 O.3     
  34 C34            4.4238    -1.4379    -1.3765 C.3     
  35 N35            2.3459     5.2094    -5.5045 N.2     
  36 C36            2.6181     6.3659    -6.0652 C.2     
  37 C37            1.8957     7.3199    -5.3447 C.2     
  38 F38           11.6809    -0.1932     2.4304 F       
  39 C39            2.4140     5.4447     1.0281 C.3     
  40 F40            1.3171     6.3058     0.9152 F       
  41 F41            2.1970     4.5487     2.0804 F       
  42 F42            3.5690     6.1919     1.2825 F       
  43 C43            5.8932    -1.0178     1.5434 C.2     
  44 O44            6.7686    -1.8604     1.5171 O.2     
  45 O45            4.7092    -1.2939     2.1252 O.3     
  46 H46            0.9149     5.6006    -1.2426 H       
  47 H47            3.1143     2.6847    -3.4540 H       
  48 H48            8.4274     1.9996    -0.8928 H       
  49 H49            4.2621     1.1324     1.6285 H       
  50 H50            8.1731    -2.4433    -0.5524 H       
  51 H51            7.4262     1.2257     1.7954 H       
  52 H52            7.6355     2.8649     3.6139 H       
  53 H53           11.6586     1.6200     4.3074 H       
  54 H54            6.6923    -0.2096    -2.0068 H       
  55 H55            6.7502    -1.8964    -2.5723 H       
  56 H56            0.9314     3.4182    -4.2273 H       
  57 H57            0.0073     4.6333    -3.3120 H       
  58 H58            9.1016    -1.9197    -2.8461 H       
  59 H59            9.3140    -0.2335    -2.3170 H       
  60 H60           12.5474    -1.7814    -1.6756 H       
  61 H61           11.5256    -2.1498    -3.0857 H       
  62 H62           11.7380    -0.4636    -2.5567 H       
  63 H63            4.2751    -0.4019    -1.6808 H       
  64 H64            4.3330    -2.0886    -2.2462 H       
  65 H65            3.6702    -1.7114    -0.6380 H       
  66 H66            3.2694     6.5431    -6.9082 H       
  67 H67            1.8713     8.3855    -5.5186 H       
  68 H68            4.6032    -2.1756     2.5079 H       
@<TRIPOS>BOND
   1    1    2 ar
   2    1    6 ar
   3    1   46 1
   4    2    3 ar
   5    2   26 1
   6    3    4 ar
   7    3   47 1
   8    4    5 ar
   9    5    6 ar
  10    5    7 1
  11    6   39 1
  12    7    8 1
  13    8    9 ar
  14    8   13 ar
  15    9   10 ar
  16    9   14 1
  17   10   11 ar
  18   10   48 1
  19   11   12 ar
  20   11   15 1
  21   12   13 ar
  22   12   43 1
  23   13   49 1
  24   15   16 am
  25   15   17 1
  26   16   18 2
  27   16   19 1
  28   17   25 1
  29   17   31 1
  30   17   50 1
  31   19   20 ar
  32   19   24 ar
  33   20   21 ar
  34   20   51 1
  35   21   22 ar
  36   21   52 1
  37   22   23 ar
  38   22   27 1
  39   23   24 ar
  40   23   53 1
  41   24   38 1
  42   25   33 1
  43   25   54 1
  44   25   55 1
  45   26   28 1
  46   26   56 1
  47   26   57 1
  48   28   35 1
  49   28   29 1
  50   29   37 2
  51   30   31 1
  52   30   32 1
  53   31   58 1
  54   31   59 1
  55   32   60 1
  56   32   61 1
  57   32   62 1
  58   33   34 1
  59   34   63 1
  60   34   64 1
  61   34   65 1
  62   35   36 2
  63   36   37 1
  64   36   66 1
  65   37   67 1
  66   39   40 1
  67   39   41 1
  68   39   42 1
  69   43   44 2
  70   43   45 1
  71   45   68 1

#	End of record

