#	Name: ASD08070463
#	Creating user name:	WinNT
#	Creation time:	15. 06. 2019 21:14

#	Modifying user name:	WinNT
#	Modification time:	15. 06. 2019 21:14

#	Program:	/corina/corina34_cracker 3.40 0067  02.08.2006

@<TRIPOS>MOLECULE
ASD08070463
  33   34    0    0    0
SMALL
NO_CHARGES


@<TRIPOS>ATOM
   1 C1            -0.0180     1.4767     0.0102 C.2     
   2 C2             0.0021    -0.0041     0.0020 C.ar    
   3 C3             1.2113    -0.7063    -0.0133 C.ar    
   4 C4             1.1836    -2.0874    -0.0205 C.ar    
   5 N5             0.0392    -2.7416    -0.0136 N.ar    
   6 C6            -1.1225    -2.1188     0.0008 C.ar    
   7 C7            -1.1876    -0.7390     0.0153 C.ar    
   8 O8             1.0261     2.0986     0.0035 O.2     
   9 N9            -1.1942     2.1346     0.0193 N.am    
  10 S10            0.1749     4.5216     0.0252 S.3     
  11 C11           -1.2131     3.5233     0.0270 C.2     
  12 N12           -2.2858     4.2514     0.0360 N.2     
  13 C13           -2.1192     5.5606     0.0419 C.2     
  14 C14           -0.8451     5.9579     0.0376 C.2     
  15 C15           -3.2741     6.5286     0.0518 C.3     
  16 C16           -3.4316     7.1489    -1.3379 C.3     
  17 C17           -4.5583     5.7866     0.4276 C.3     
  18 C18           -3.0051     7.6331     1.0758 C.3     
  19 H19            2.1526    -0.1769    -0.0198 H       
  20 H20            2.1122    -2.6387    -0.0323 H       
  21 H21           -2.0358    -2.6952     0.0057 H       
  22 H22           -2.1429    -0.2355     0.0321 H       
  23 H23           -2.0276     1.6383     0.0206 H       
  24 H24           -0.4997     6.9812     0.0415 H       
  25 H25           -3.6232     6.3620    -2.0675 H       
  26 H26           -4.2670     7.8491    -1.3308 H       
  27 H27           -2.5167     7.6776    -1.6056 H       
  28 H28           -4.4461     5.3446     1.4176 H       
  29 H29           -5.3936     6.4867     0.4347 H       
  30 H30           -4.7499     4.9997    -0.3020 H       
  31 H31           -2.0902     8.1618     0.8081 H       
  32 H32           -3.8405     8.3333     1.0829 H       
  33 H33           -2.8929     7.1912     2.0658 H       
@<TRIPOS>BOND
   1    1    2 1
   2    1    8 2
   3    1    9 am
   4    2    3 ar
   5    2    7 ar
   6    3    4 ar
   7    3   19 1
   8    4    5 ar
   9    4   20 1
  10    5    6 ar
  11    6    7 ar
  12    6   21 1
  13    7   22 1
  14    9   11 1
  15    9   23 1
  16   10   11 1
  17   10   14 1
  18   11   12 2
  19   12   13 1
  20   13   14 2
  21   13   15 1
  22   14   24 1
  23   15   16 1
  24   15   18 1
  25   15   17 1
  26   16   25 1
  27   16   26 1
  28   16   27 1
  29   17   28 1
  30   17   29 1
  31   17   30 1
  32   18   31 1
  33   18   32 1
  34   18   33 1

#	End of record

