#	Name: ASD03240157
#	Creating user name:	WinNT
#	Creation time:	15. 06. 2019 20:34

#	Modifying user name:	WinNT
#	Modification time:	15. 06. 2019 20:34

#	Program:	/corina/corina34_cracker 3.40 0067  02.08.2006

@<TRIPOS>MOLECULE
ASD03240157
  71   77    0    0    0
SMALL
NO_CHARGES


@<TRIPOS>ATOM
   1 C1            -0.0171     1.4119     0.0098 C.ar    
   2 C2             0.0021    -0.0041     0.0020 C.ar    
   3 C3             1.1873     2.1167     0.0021 C.ar    
   4 C4             2.3717     1.3854    -0.0132 C.ar    
   5 C5             2.3140    -0.0227    -0.0202 C.ar    
   6 N6             1.1555    -0.6618    -0.0126 N.ar    
   7 C7             3.5737    -0.8017    -0.0370 C.ar    
   8 C8             3.6805     2.0807    -0.0224 C.ar    
   9 C9             3.9259     3.0983    -0.9435 C.ar    
  10 C10            5.1463     3.7424    -0.9470 C.ar    
  11 C11            6.1253     3.3801    -0.0394 C.ar    
  12 C12            5.8876     2.3712     0.8769 C.ar    
  13 C13            4.6691     1.7238     0.8937 C.ar    
  14 C14            3.6564    -2.0140     0.6475 C.ar    
  15 C15            4.8327    -2.7351     0.6282 C.ar    
  16 C16            5.9286    -2.2578    -0.0683 C.ar    
  17 C17            5.8529    -1.0557    -0.7488 C.ar    
  18 C18            4.6802    -0.3285    -0.7421 C.ar    
  19 C19            7.2103    -3.0503    -0.0853 C.3     
  20 N20            7.1977    -3.9773    -1.2248 N.3     
  21 C21            8.5163    -4.5947    -1.4156 C.3     
  22 C22            8.5062    -5.4384    -2.6923 C.3     
  23 C23            7.4280    -6.5193    -2.5754 C.3     
  24 C24            6.0721    -5.8520    -2.3289 C.3     
  25 C25            6.1528    -4.9963    -1.0627 C.3     
  26 C26            7.3724    -7.3155    -3.8536 C.2     
  27 N27            7.9871    -8.4429    -4.0889 N.2     
  28 N28            7.7221    -8.8503    -5.2788 N.2     
  29 C29            6.9168    -7.9966    -5.8715 C.2     
  30 N30            6.6668    -6.9940    -4.9739 N.pl3   
  31 C31           -1.2813    -0.7086     0.0111 C.2     
  32 C32           -2.4244    -0.0032     0.0262 C.2     
  33 N33           -2.4446     1.3604     0.0337 N.am    
  34 C34           -1.3143     2.0946     0.0320 C.2     
  35 O35           -1.3700     3.3111     0.0389 O.2     
  36 C36            6.3791    -8.1022    -7.2452 C.2     
  37 C37            6.7130    -9.1760    -8.0398 C.2     
  38 N38            6.2252    -9.2767    -9.2944 N.am    
  39 C39            5.4049    -8.3355    -9.7962 C.2     
  40 C40            5.0379    -7.2221    -9.0194 C.2     
  41 C41            5.5140    -7.1043    -7.7497 C.2     
  42 O42            4.9768    -8.4487   -10.9333 O.2     
  43 H43            1.2002     3.1966     0.0074 H       
  44 H44            3.1625     3.3815    -1.6530 H       
  45 H45            5.3375     4.5308    -1.6600 H       
  46 H46            7.0792     3.8865    -0.0463 H       
  47 H47            6.6558     2.0926     1.5831 H       
  48 H48            4.4846     0.9363     1.6094 H       
  49 H49            2.8017    -2.3875     1.1919 H       
  50 H50            4.8981    -3.6739     1.1582 H       
  51 H51            6.7119    -0.6878    -1.2902 H       
  52 H52            4.6221     0.6096    -1.2740 H       
  53 H53            8.0568    -2.3701    -0.1796 H       
  54 H54            7.3001    -3.6158     0.8422 H       
  55 H55            9.2733    -3.8151    -1.5014 H       
  56 H56            8.7463    -5.2314    -0.5613 H       
  57 H57            8.2899    -4.7998    -3.5488 H       
  58 H58            9.4803    -5.9090    -2.8253 H       
  59 H59            7.6648    -7.1815    -1.7426 H       
  60 H60            5.8175    -5.2199    -3.1796 H       
  61 H61            5.3071    -6.6181    -2.2022 H       
  62 H62            6.3938    -5.6312    -0.2101 H       
  63 H63            5.1931    -4.5084    -0.8922 H       
  64 H64            6.1076    -6.2131    -5.1093 H       
  65 H65           -1.3088    -1.7882     0.0052 H       
  66 H66           -3.3636    -0.5364     0.0324 H       
  67 H67           -3.3005     1.8168     0.0443 H       
  68 H68            7.3700    -9.9428    -7.6568 H       
  69 H69            6.4700   -10.0387    -9.8424 H       
  70 H70            4.3796    -6.4686    -9.4257 H       
  71 H71            5.2418    -6.2558    -7.1394 H       
@<TRIPOS>BOND
   1    1    2 ar
   2    1    3 ar
   3    1   34 1
   4    2   31 1
   5    2    6 ar
   6    3    4 ar
   7    3   43 1
   8    4    5 ar
   9    4    8 1
  10    5    6 ar
  11    5    7 1
  12    7   14 ar
  13    7   18 ar
  14    8    9 ar
  15    8   13 ar
  16    9   10 ar
  17    9   44 1
  18   10   11 ar
  19   10   45 1
  20   11   12 ar
  21   11   46 1
  22   12   13 ar
  23   12   47 1
  24   13   48 1
  25   14   15 ar
  26   14   49 1
  27   15   16 ar
  28   15   50 1
  29   16   17 ar
  30   16   19 1
  31   17   18 ar
  32   17   51 1
  33   18   52 1
  34   19   20 1
  35   19   53 1
  36   19   54 1
  37   20   21 1
  38   20   25 1
  39   21   22 1
  40   21   55 1
  41   21   56 1
  42   22   23 1
  43   22   57 1
  44   22   58 1
  45   23   24 1
  46   23   26 1
  47   23   59 1
  48   24   25 1
  49   24   60 1
  50   24   61 1
  51   25   62 1
  52   25   63 1
  53   26   27 2
  54   26   30 1
  55   27   28 1
  56   28   29 2
  57   29   30 1
  58   29   36 1
  59   30   64 1
  60   31   32 2
  61   31   65 1
  62   32   33 1
  63   32   66 1
  64   33   34 am
  65   33   67 1
  66   34   35 2
  67   36   37 2
  68   36   41 1
  69   37   38 1
  70   37   68 1
  71   38   39 am
  72   38   69 1
  73   39   40 1
  74   39   42 2
  75   40   41 2
  76   40   70 1
  77   41   71 1

#	End of record

