#	Name: ASD01000100
#	Creating user name:	WinNT
#	Creation time:	15. 06. 2019 18:54

#	Modifying user name:	WinNT
#	Modification time:	15. 06. 2019 18:54

#	Program:	/corina/corina34_cracker 3.40 0067  02.08.2006

@<TRIPOS>MOLECULE
ASD01000100
  48   50    0    0    0
SMALL
NO_CHARGES


@<TRIPOS>ATOM
   1 C1             1.9934     3.4566    -1.1846 C.ar    
   2 C2             1.4723     2.1769    -1.0769 C.ar    
   3 C3             2.3127     1.1014    -0.8628 C.ar    
   4 C4             3.6887     1.3057    -0.7550 C.ar    
   5 C5             4.2076     2.5984    -0.8645 C.ar    
   6 C6             3.3559     3.6659    -1.0786 C.ar    
   7 C7             4.5933     0.1599    -0.5256 C.2     
   8 C8             4.9384    -0.7292    -1.4389 C.2     
   9 F9             5.5387     2.8045    -0.7608 F       
  10 F10            0.1397     1.9808    -1.1811 F       
  11 C11            5.2644    -0.1643     0.7830 C.3     
  12 N12            6.0697    -1.3748     0.5715 N.am    
  13 C13            5.8723    -1.7454    -0.8364 C.3     
  14 C14            7.1926    -1.7222    -1.5626 C.ar    
  15 C15            7.4881    -2.7026    -2.4912 C.ar    
  16 C16            8.1060    -0.7172    -1.3042 C.ar    
  17 C17            9.3171    -0.6959    -1.9703 C.ar    
  18 C18            9.6150    -1.6798    -2.8944 C.ar    
  19 C19            8.6992    -2.6814    -3.1572 C.ar    
  20 C20            6.8346    -2.0116     1.4804 C.2     
  21 O21            7.4045    -3.0391     1.1800 O.2     
  22 C22            6.9815    -1.4468     2.8698 C.3     
  23 C23            8.3475    -0.7708     3.0037 C.3     
  24 N24            6.8739    -2.5325     3.8535 N.3     
  25 C25            8.4748     0.3344     1.9533 C.3     
  26 C26            8.4812    -0.1636     4.4017 C.3     
  27 H27            1.3326     4.2934    -1.3564 H       
  28 H28            1.9054     0.1047    -0.7788 H       
  29 H29            3.7557     4.6656    -1.1634 H       
  30 H30            4.6007    -0.7281    -2.4648 H       
  31 H31            5.9087     0.6618     1.0840 H       
  32 H32            4.5120    -0.3488     1.5498 H       
  33 H33            5.4294    -2.7393    -0.8996 H       
  34 H34            6.7728    -3.4854    -2.6960 H       
  35 H35            7.8732     0.0515    -0.5822 H       
  36 H36           10.0304     0.0896    -1.7689 H       
  37 H37           10.5611    -1.6630    -3.4151 H       
  38 H38            8.9319    -3.4500    -3.8793 H       
  39 H39            6.1945    -0.7144     3.0494 H       
  40 H40            9.1348    -1.5091     2.8514 H       
  41 H41            5.9570    -2.9529     3.8292 H       
  42 H42            7.5933    -3.2249     3.7080 H       
  43 H43            9.4702     0.7751     2.0084 H       
  44 H44            8.3188    -0.0881     0.9607 H       
  45 H45            7.7259     1.1035     2.1426 H       
  46 H46            8.3906    -0.9510     5.1500 H       
  47 H47            9.4544     0.3180     4.4970 H       
  48 H48            7.6940     0.5747     4.5539 H       
@<TRIPOS>BOND
   1    1    2 ar
   2    1    6 ar
   3    1   27 1
   4    2    3 ar
   5    2   10 1
   6    3    4 ar
   7    3   28 1
   8    4    5 ar
   9    4    7 1
  10    5    6 ar
  11    5    9 1
  12    6   29 1
  13    7    8 2
  14    7   11 1
  15    8   13 1
  16    8   30 1
  17   11   12 1
  18   11   31 1
  19   11   32 1
  20   12   13 1
  21   12   20 am
  22   13   14 1
  23   13   33 1
  24   14   15 ar
  25   14   16 ar
  26   15   19 ar
  27   15   34 1
  28   16   17 ar
  29   16   35 1
  30   17   18 ar
  31   17   36 1
  32   18   19 ar
  33   18   37 1
  34   19   38 1
  35   20   21 2
  36   20   22 1
  37   22   23 1
  38   22   24 1
  39   22   39 1
  40   23   25 1
  41   23   26 1
  42   23   40 1
  43   24   41 1
  44   24   42 1
  45   25   43 1
  46   25   44 1
  47   25   45 1
  48   26   46 1
  49   26   47 1
  50   26   48 1

#	End of record

