#	Name: ASD01890567
#	Creating user name:	WinNT
#	Creation time:	15. 06. 2019 19:51

#	Modifying user name:	WinNT
#	Modification time:	15. 06. 2019 19:51

#	Program:	/corina/corina34_cracker 3.40 0067  02.08.2006

@<TRIPOS>MOLECULE
ASD01890567
  27   28    0    0    0
SMALL
NO_CHARGES


@<TRIPOS>ATOM
   1 C1            -0.0781     1.5261     0.0332 C.2     
   2 C2            -0.0415     0.0141     0.0150 C.3     
   3 C3            -0.9215    -0.5089     1.1577 C.3     
   4 C4            -2.3141     0.1232     1.0354 C.3     
   5 C5            -2.1557     1.6259     0.9660 C.2     
   6 O6             0.9427     2.1723     0.0230 O.2     
   7 O7            -2.7865     2.3513     1.6979 O.2     
   8 O8            -1.2871     2.1351     0.0554 O.3     
   9 C9            -1.0368    -2.0084     1.0613 C.ar    
  10 C10           -0.5071    -2.8076     2.0575 C.ar    
  11 C11           -0.6121    -4.1827     1.9694 C.ar    
  12 C12           -1.2479    -4.7597     0.8842 C.ar    
  13 C13           -1.7780    -3.9595    -0.1119 C.ar    
  14 C14           -1.6769    -2.5839    -0.0201 C.ar    
  15 C15            0.1852    -2.1791     3.2393 C.3     
  16 Cl16          -1.3797    -6.4871     0.7726 Cl      
  17 H17           -0.4248    -0.3500    -0.9382 H       
  18 H18            0.9834    -0.3291     0.1557 H       
  19 H19           -0.4785    -0.2348     2.1152 H       
  20 H20           -2.8007    -0.2359     0.1286 H       
  21 H21           -2.9142    -0.1419     1.9058 H       
  22 H22           -0.1977    -4.8070     2.7473 H       
  23 H23           -2.2740    -4.4093    -0.9593 H       
  24 H24           -2.0946    -1.9589    -0.7955 H       
  25 H25           -0.5561    -1.8976     3.9872 H       
  26 H26            0.8852    -2.8936     3.6725 H       
  27 H27            0.7273    -1.2916     2.9130 H       
@<TRIPOS>BOND
   1    1    2 1
   2    1    6 2
   3    1    8 1
   4    2    3 1
   5    2   17 1
   6    2   18 1
   7    3    4 1
   8    3    9 1
   9    3   19 1
  10    4    5 1
  11    4   20 1
  12    4   21 1
  13    5    7 2
  14    5    8 1
  15    9   10 ar
  16    9   14 ar
  17   10   11 ar
  18   10   15 1
  19   11   12 ar
  20   11   22 1
  21   12   13 ar
  22   12   16 1
  23   13   14 ar
  24   13   23 1
  25   14   24 1
  26   15   25 1
  27   15   26 1
  28   15   27 1

#	End of record

