#	Name: ASD01814738
#	Creating user name:	WinNT
#	Creation time:	15. 06. 2019 19:32

#	Modifying user name:	WinNT
#	Modification time:	15. 06. 2019 19:32

#	Program:	/corina/corina34_cracker 3.40 0067  02.08.2006

@<TRIPOS>MOLECULE
ASD01814738
  70   75    0    0    0
SMALL
NO_CHARGES


@<TRIPOS>ATOM
   1 C1            -0.0140     1.3801    -0.0826 C.ar    
   2 C2             0.0048    -0.0036    -0.0900 C.ar    
   3 C3             1.1963    -0.6956    -0.0138 C.ar    
   4 C4             2.4010    -0.0059     0.0725 C.ar    
   5 C5             2.3886     1.4001     0.0804 C.ar    
   6 C6             1.1727     2.0935     0.0021 C.ar    
   7 N7             3.5953    -0.6904     0.1499 N.pl3   
   8 C8             4.7811    -0.0727     0.2348 C.2     
   9 C9             4.8938     1.3022     0.2516 C.2     
  10 C10            3.6697     2.1175     0.1720 C.2     
  11 O11            3.7161     3.3355     0.1832 O.2     
  12 C12            6.2129     1.9425     0.3472 C.2     
  13 O13            7.2167     1.2598     0.4123 O.2     
  14 O14            6.3100     3.2870     0.3626 O.3     
  15 C15            3.5665    -2.1551     0.1393 C.3     
  16 C16            3.6532    -2.6489    -1.2819 C.ar    
  17 C17            4.8893    -2.8989    -1.8502 C.ar    
  18 C18            4.9747    -3.3518    -3.1511 C.ar    
  19 C19            3.8126    -3.5571    -3.8923 C.ar    
  20 C20            2.5700    -3.3036    -3.3147 C.ar    
  21 C21            2.4963    -2.8560    -2.0112 C.ar    
  22 C22            3.8980    -4.0433    -5.2914 C.ar    
  23 N23            1.1564     3.4832     0.0093 N.3     
  24 C24            0.4754     3.9957     1.2064 C.3     
  25 C25            0.5485     5.5245     1.2164 C.3     
  26 N26           -0.0749     6.0501    -0.0062 N.3     
  27 C27            0.6061     5.5376    -1.2033 C.3     
  28 C28            0.5330     4.0089    -1.2133 C.3     
  29 C29            2.7356    -4.2518    -6.0420 C.ar    
  30 C30            2.8644    -4.7051    -7.3401 C.ar    
  31 C31            4.1363    -4.9380    -7.8555 C.ar    
  32 N32            5.2167    -4.7303    -7.1178 N.ar    
  33 C33            5.1358    -4.2928    -5.8773 C.ar    
  34 N34            4.2743    -5.3945    -9.1603 N.3     
  35 C35            5.6912    -5.5757    -9.5080 C.3     
  36 C36            5.7948    -6.1348   -10.9294 C.3     
  37 O37            5.1241    -5.2527   -11.8334 O.3     
  38 C38            3.7418    -5.0540   -11.5247 C.3     
  39 C39            3.6174    -4.4839   -10.1093 C.3     
  40 H40           -0.9550     1.9062    -0.1474 H       
  41 H41           -0.9251    -0.5489    -0.1559 H       
  42 H42            1.1932    -1.7755    -0.0208 H       
  43 H43            5.6784    -0.6709     0.2925 H       
  44 H44            7.1990     3.6622     0.4267 H       
  45 H45            4.4121    -2.5393     0.7097 H       
  46 H46            2.6366    -2.5034     0.5888 H       
  47 H47            5.7893    -2.7391    -1.2750 H       
  48 H48            5.9403    -3.5463    -3.5940 H       
  49 H49            1.6662    -3.4611    -3.8846 H       
  50 H50            1.5336    -2.6631    -1.5611 H       
  51 H51           -0.5683     3.6816     1.1936 H       
  52 H52            0.9629     3.6025     2.0985 H       
  53 H53            0.0189     5.9081     2.0885 H       
  54 H54            1.5915     5.8384     1.2567 H       
  55 H55           -1.0604     5.8351    -0.0308 H       
  56 H56            0.1186     5.9308    -2.0954 H       
  57 H57            1.6498     5.8517    -1.1905 H       
  58 H58            1.0626     3.6252    -2.0854 H       
  59 H59           -0.5100     3.6949    -1.2536 H       
  60 H60            1.7611    -4.0632    -5.6163 H       
  61 H61            1.9886    -4.8773    -7.9481 H       
  62 H62            6.0389    -4.1348    -5.3064 H       
  63 H63            6.2043    -4.6154    -9.4563 H       
  64 H64            6.1514    -6.2731    -8.8081 H       
  65 H65            6.8442    -6.2171   -11.2126 H       
  66 H66            5.3285    -7.1193   -10.9682 H       
  67 H67            3.3064    -4.3546   -12.2384 H       
  68 H68            3.2157    -6.0070   -11.5808 H       
  69 H69            2.5638    -4.3844    -9.8484 H       
  70 H70            4.0973    -3.5062   -10.0673 H       
@<TRIPOS>BOND
   1    1    2 ar
   2    1    6 ar
   3    1   40 1
   4    2    3 ar
   5    2   41 1
   6    3    4 ar
   7    3   42 1
   8    4    5 ar
   9    4    7 1
  10    5    6 ar
  11    5   10 1
  12    6   23 1
  13    7   15 1
  14    7    8 1
  15    8    9 2
  16    8   43 1
  17    9   10 1
  18    9   12 1
  19   10   11 2
  20   12   13 2
  21   12   14 1
  22   14   44 1
  23   15   16 1
  24   15   45 1
  25   15   46 1
  26   16   17 ar
  27   16   21 ar
  28   17   18 ar
  29   17   47 1
  30   18   19 ar
  31   18   48 1
  32   19   20 ar
  33   19   22 1
  34   20   21 ar
  35   20   49 1
  36   21   50 1
  37   22   29 ar
  38   22   33 ar
  39   23   24 1
  40   23   28 1
  41   24   25 1
  42   24   51 1
  43   24   52 1
  44   25   26 1
  45   25   53 1
  46   25   54 1
  47   26   27 1
  48   26   55 1
  49   27   28 1
  50   27   56 1
  51   27   57 1
  52   28   58 1
  53   28   59 1
  54   29   30 ar
  55   29   60 1
  56   30   31 ar
  57   30   61 1
  58   31   32 ar
  59   31   34 1
  60   32   33 ar
  61   33   62 1
  62   34   35 1
  63   34   39 1
  64   35   36 1
  65   35   63 1
  66   35   64 1
  67   36   37 1
  68   36   65 1
  69   36   66 1
  70   37   38 1
  71   38   39 1
  72   38   67 1
  73   38   68 1
  74   39   69 1
  75   39   70 1

#	End of record

