#	Name: ASD05250016
#	Creating user name:	WinNT
#	Creation time:	15. 06. 2019 20:58

#	Modifying user name:	WinNT
#	Modification time:	15. 06. 2019 20:58

#	Program:	/corina/corina34_cracker 3.40 0067  02.08.2006

@<TRIPOS>MOLECULE
ASD05250016
  62   66    0    0    0
SMALL
NO_CHARGES


@<TRIPOS>ATOM
   1 C1             0.0687     1.3475    -1.2538 C.ar    
   2 C2             0.0743    -0.0315    -1.1232 C.ar    
   3 N3             1.1888    -0.6922    -0.8917 N.ar    
   4 C4             2.3563    -0.0655    -0.7732 C.ar    
   5 C5             2.4215     1.3334    -0.8950 C.ar    
   6 C6             1.2584     2.0487    -1.1390 C.ar    
   7 N7             3.6234    -0.4912    -0.5410 N.2     
   8 C8             4.4213     0.5472    -0.5178 C.2     
   9 O9             3.7175     1.6746    -0.7306 O.3     
  10 C10            5.8808     0.4895    -0.2911 C.ar    
  11 C11            6.5088    -0.7394    -0.0808 C.ar    
  12 C12            7.8718    -0.7906     0.1302 C.ar    
  13 C13            8.6193     0.3718     0.1347 C.ar    
  14 C14            8.0035     1.6006    -0.0738 C.ar    
  15 C15            6.6361     1.6623    -0.2923 C.ar    
  16 N16            8.7646     2.7742    -0.0683 N.am    
  17 C17            8.2462     3.9112     0.4367 C.2     
  18 C18            9.0830     5.1226     0.5374 C.ar    
  19 O19            7.0891     3.9388     0.8093 O.2     
  20 C20           10.4123     5.0926     0.1098 C.ar    
  21 C21           11.1927     6.2247     0.2050 C.ar    
  22 C22           10.6607     7.3963     0.7252 C.ar    
  23 C23            9.3343     7.4333     1.1540 C.ar    
  24 C24            8.5452     6.3042     1.0556 C.ar    
  25 O25           11.4338     8.5090     0.8174 O.3     
  26 C26           12.7834     8.4009     0.3604 C.3     
  27 C27            7.4507     8.5487     2.0834 C.3     
  28 O28            8.8162     8.5828     1.6637 O.3     
  29 C29            8.5472    -2.1186     0.3570 C.3     
  30 N30            8.9729    -2.6780    -0.9329 N.3     
  31 C31            9.8394    -3.8490    -0.7388 C.3     
  32 C32           10.1953    -4.4484    -2.1013 C.3     
  33 N33           10.8667    -3.4302    -2.9212 N.3     
  34 C34           10.0002    -2.2592    -3.1153 C.3     
  35 C35            9.6443    -1.6598    -1.7527 C.3     
  36 H36           -0.8552     1.8718    -1.4481 H       
  37 H37           -0.8545    -0.5753    -1.2128 H       
  38 H38            1.2795     3.1240    -1.2373 H       
  39 H39            5.9280    -1.6500    -0.0828 H       
  40 H40            9.6854     0.3255     0.3010 H       
  41 H41            6.1558     2.6159    -0.4545 H       
  42 H42            9.6654     2.7697    -0.4280 H       
  43 H43           10.8289     4.1821    -0.2951 H       
  44 H44           12.2205     6.1999    -0.1257 H       
  45 H45            7.5177     6.3315     1.3870 H       
  46 H46           13.2886     9.3580     0.4899 H       
  47 H47           13.3022     7.6353     0.9373 H       
  48 H48           12.7890     8.1269    -0.6946 H       
  49 H49            7.1644     9.5274     2.4686 H       
  50 H50            6.8161     8.2924     1.2350 H       
  51 H51            7.3298     7.8004     2.8667 H       
  52 H52            9.4180    -1.9786     0.9975 H       
  53 H53            7.8491    -2.8039     0.8376 H       
  54 H54           10.7518    -3.5453    -0.2256 H       
  55 H55            9.3155    -4.5937    -0.1396 H       
  56 H56           10.8614    -5.2997    -1.9614 H       
  57 H57            9.2851    -4.7770    -2.6030 H       
  58 H58           11.7501    -3.1627    -2.5137 H       
  59 H59           10.5241    -1.5144    -3.7144 H       
  60 H60            9.0878    -2.5629    -3.6284 H       
  61 H61            8.9782    -0.8085    -1.8927 H       
  62 H62           10.5545    -1.3312    -1.2510 H       
@<TRIPOS>BOND
   1    1    2 ar
   2    1    6 ar
   3    1   36 1
   4    2    3 ar
   5    2   37 1
   6    3    4 ar
   7    4    5 ar
   8    4    7 1
   9    5    6 ar
  10    5    9 1
  11    6   38 1
  12    7    8 2
  13    8    9 1
  14    8   10 1
  15   10   11 ar
  16   10   15 ar
  17   11   12 ar
  18   11   39 1
  19   12   13 ar
  20   12   29 1
  21   13   14 ar
  22   13   40 1
  23   14   15 ar
  24   14   16 1
  25   15   41 1
  26   16   17 am
  27   16   42 1
  28   17   18 1
  29   17   19 2
  30   18   20 ar
  31   18   24 ar
  32   20   21 ar
  33   20   43 1
  34   21   22 ar
  35   21   44 1
  36   22   23 ar
  37   22   25 1
  38   23   24 ar
  39   23   28 1
  40   24   45 1
  41   25   26 1
  42   26   46 1
  43   26   47 1
  44   26   48 1
  45   27   28 1
  46   27   49 1
  47   27   50 1
  48   27   51 1
  49   29   30 1
  50   29   52 1
  51   29   53 1
  52   30   31 1
  53   30   35 1
  54   31   32 1
  55   31   54 1
  56   31   55 1
  57   32   33 1
  58   32   56 1
  59   32   57 1
  60   33   34 1
  61   33   58 1
  62   34   35 1
  63   34   59 1
  64   34   60 1
  65   35   61 1
  66   35   62 1

#	End of record

