#	Name: ASD08178432
#	Creating user name:	WinNT
#	Creation time:	15. 06. 2019 21:18

#	Modifying user name:	WinNT
#	Modification time:	15. 06. 2019 21:18

#	Program:	/corina/corina34_cracker 3.40 0067  02.08.2006

@<TRIPOS>MOLECULE
ASD08178432
  87   90    0    0    0
SMALL
NO_CHARGES


@<TRIPOS>ATOM
   1 N1             0.3329     0.9549     0.4961 N.am    
   2 C2             0.4665    -0.4329     0.4701 C.ar    
   3 C3            -0.6459    -1.2470     0.6735 C.ar    
   4 N4             1.6505    -0.9832     0.2465 N.ar    
   5 N5             1.8156    -2.2556     0.2141 N.ar    
   6 C6             0.8200    -3.0997     0.4010 C.ar    
   7 C7            -0.4603    -2.6207     0.6375 C.ar    
   8 C8             1.0717    -4.5847     0.3516 C.3     
   9 C9             1.7390    -4.9449    -0.9773 C.3     
  10 C10            1.9946    -6.4526    -1.0274 C.3     
  11 C11            2.6619    -6.8128    -2.3563 C.3     
  12 C12            2.9137    -8.2978    -2.4057 C.2     
  13 N13            2.1006    -9.1957    -2.8643 N.2     
  14 N14            2.4973   -10.3933    -2.8181 N.2     
  15 C15            3.6751   -10.6196    -2.3196 C.2     
  16 S16            4.3718    -9.1247    -1.8563 S.3     
  17 N17            4.2738   -11.8681    -2.1887 N.am    
  18 C18            3.6220   -12.9743    -2.5984 C.2     
  19 C19            4.2707   -14.3271    -2.4567 C.3     
  20 O20            2.5133   -12.8810    -3.0811 O.2     
  21 C21            3.3403   -15.3882    -2.9853 C.ar    
  22 C22            3.3975   -15.7569    -4.3163 C.ar    
  23 C23            2.5440   -16.7303    -4.8012 C.ar    
  24 C24            1.6337   -17.3352    -3.9549 C.ar    
  25 C25            1.5771   -16.9672    -2.6237 C.ar    
  26 C26            2.4335   -15.9969    -2.1378 C.ar    
  27 C27            1.4266     1.7388     0.4201 C.2     
  28 C28            1.2763     3.2358     0.3344 C.3     
  29 O29            2.5318     1.2394     0.4206 O.2     
  30 C30            2.6394     3.8741     0.2599 C.ar    
  31 C31            3.2327     4.0953    -0.9687 C.ar    
  32 C32            4.4832     4.6808    -1.0371 C.ar    
  33 C33            5.1399     5.0455     0.1232 C.ar    
  34 C34            4.5461     4.8251     1.3521 C.ar    
  35 C35            3.2940     4.2436     1.4202 C.ar    
  36 C36            5.1305     4.9211    -2.3766 C.3     
  37 N37            5.9810     6.1116    -2.3015 N.am    
  38 C38            5.9830     3.7085    -2.7559 C.3     
  39 C39            4.0471     5.1342    -3.4357 C.3     
  40 C40            6.6913     6.5013    -3.3785 C.2     
  41 O41            7.4729     7.5954    -3.3095 O.3     
  42 O42            6.6264     5.8653    -4.4118 O.2     
  43 C43            8.2093     7.9561    -4.5078 C.3     
  44 C44            7.2264     8.2245    -5.6491 C.3     
  45 C45            9.0351     9.2159    -4.2391 C.3     
  46 C46            9.1426     6.8082    -4.8978 C.3     
  47 H47           -0.5475     1.3562     0.5650 H       
  48 H48           -1.6220    -0.8215     0.8540 H       
  49 H49           -1.2873    -3.2977     0.7929 H       
  50 H50            1.7257    -4.8699     1.1756 H       
  51 H51            0.1245    -5.1169     0.4385 H       
  52 H52            1.0851    -4.6597    -1.8013 H       
  53 H53            2.6863    -4.4127    -1.0642 H       
  54 H54            2.6486    -6.7378    -0.2034 H       
  55 H55            1.0474    -6.9848    -0.9405 H       
  56 H56            2.0080    -6.5275    -3.1803 H       
  57 H57            3.6092    -6.2806    -2.4432 H       
  58 H58            5.1606   -11.9427    -1.8027 H       
  59 H59            5.2015   -14.3449    -3.0235 H       
  60 H60            4.4820   -14.5203    -1.4049 H       
  61 H61            4.1087   -15.2843    -4.9775 H       
  62 H62            2.5882   -17.0178    -5.8413 H       
  63 H63            0.9664   -18.0952    -4.3339 H       
  64 H64            0.8656   -17.4396    -1.9626 H       
  65 H65            2.3893   -15.7094    -1.0977 H       
  66 H66            0.7053     3.4932    -0.5577 H       
  67 H67            0.7526     3.5996     1.2184 H       
  68 H68            2.7195     3.8104    -1.8753 H       
  69 H69            6.1171     5.5022     0.0698 H       
  70 H70            5.0594     5.1097     2.2587 H       
  71 H71            2.8301     4.0715     2.3802 H       
  72 H72            6.0328     6.6193    -1.4766 H       
  73 H73            5.3502     2.8227    -2.8118 H       
  74 H74            6.4512     3.8822    -3.7248 H       
  75 H75            6.7548     3.5566    -2.0014 H       
  76 H76            3.4398     5.9981    -3.1654 H       
  77 H77            4.5153     5.3080    -4.4045 H       
  78 H78            3.4144     4.2485    -3.4915 H       
  79 H79            6.5615     9.0423    -5.3713 H       
  80 H80            7.7792     8.4952    -6.5486 H       
  81 H81            6.6381     7.3270    -5.8405 H       
  82 H82            9.7354     9.0247    -3.4260 H       
  83 H83            9.5879     9.4866    -5.1386 H       
  84 H84            8.3702    10.0337    -3.9613 H       
  85 H85            8.5544     5.9107    -5.0892 H       
  86 H86            9.6954     7.0789    -5.7973 H       
  87 H87            9.8429     6.6170    -4.0847 H       
@<TRIPOS>BOND
   1    1    2 1
   2    1   27 am
   3    1   47 1
   4    2    3 ar
   5    2    4 ar
   6    3    7 ar
   7    3   48 1
   8    4    5 ar
   9    5    6 ar
  10    6    7 ar
  11    6    8 1
  12    7   49 1
  13    8    9 1
  14    8   50 1
  15    8   51 1
  16    9   10 1
  17    9   52 1
  18    9   53 1
  19   10   11 1
  20   10   54 1
  21   10   55 1
  22   11   12 1
  23   11   56 1
  24   11   57 1
  25   12   13 2
  26   12   16 1
  27   13   14 1
  28   14   15 2
  29   15   16 1
  30   15   17 1
  31   17   18 am
  32   17   58 1
  33   18   19 1
  34   18   20 2
  35   19   21 1
  36   19   59 1
  37   19   60 1
  38   21   22 ar
  39   21   26 ar
  40   22   23 ar
  41   22   61 1
  42   23   24 ar
  43   23   62 1
  44   24   25 ar
  45   24   63 1
  46   25   26 ar
  47   25   64 1
  48   26   65 1
  49   27   28 1
  50   27   29 2
  51   28   30 1
  52   28   66 1
  53   28   67 1
  54   30   31 ar
  55   30   35 ar
  56   31   32 ar
  57   31   68 1
  58   32   33 ar
  59   32   36 1
  60   33   34 ar
  61   33   69 1
  62   34   35 ar
  63   34   70 1
  64   35   71 1
  65   36   37 1
  66   36   38 1
  67   36   39 1
  68   37   40 am
  69   37   72 1
  70   38   73 1
  71   38   74 1
  72   38   75 1
  73   39   76 1
  74   39   77 1
  75   39   78 1
  76   40   41 1
  77   40   42 2
  78   41   43 1
  79   43   44 1
  80   43   45 1
  81   43   46 1
  82   44   79 1
  83   44   80 1
  84   44   81 1
  85   45   82 1
  86   45   83 1
  87   45   84 1
  88   46   85 1
  89   46   86 1
  90   46   87 1

#	End of record

