#	Name: ASD03730980
#	Creating user name:	WinNT
#	Creation time:	15. 06. 2019 20:45

#	Modifying user name:	WinNT
#	Modification time:	15. 06. 2019 20:45

#	Program:	/corina/corina34_cracker 3.40 0067  02.08.2006

@<TRIPOS>MOLECULE
ASD03730980
  46   51    0    0    0
SMALL
NO_CHARGES


@<TRIPOS>ATOM
   1 C1             0.0021    -0.0041     0.0020 C.1     
   2 C2            -0.0173     1.4278     0.0099 C.ar    
   3 C3             1.1806     2.1456     0.0023 C.ar    
   4 C4             1.1545     3.5246     0.0100 C.ar    
   5 C5            -0.0549     4.1969     0.0252 C.ar    
   6 C6            -1.2453     3.4921     0.0333 C.ar    
   7 C7            -1.2340     2.1125     0.0194 C.ar    
   8 N8             0.0175    -1.1399    -0.0042 N.1     
   9 C9             2.4462     4.3009     0.0023 C.3     
  10 O10           -1.1219     4.7210    -6.2253 O.3     
  11 C11           -1.1961     4.9745    -7.6407 C.3     
  12 O12           -0.3249     6.1047    -7.8322 O.3     
  13 C13            0.5941     6.0330    -6.8247 C.ar    
  14 C14            0.1030     5.1829    -5.8364 C.ar    
  15 C15            1.8305     6.6334    -6.6687 C.ar    
  16 C16            2.5907     6.3960    -5.5275 C.ar    
  17 C17            2.0859     5.5514    -4.5435 C.ar    
  18 C18            0.8562     4.9464    -4.6988 C.ar    
  19 O19            3.8249     6.8672    -5.1885 O.3     
  20 C20            3.1095     5.5184    -3.4402 C.3     
  21 C21            4.0212     6.7081    -3.7702 C.3     
  22 N22            2.8520     4.5599    -1.3813 N.am    
  23 C23            2.4848     5.6518    -2.0813 C.2     
  24 C24            3.8683     4.2250    -3.4040 C.ar    
  25 C25            4.6419     3.5499    -4.3215 C.ar    
  26 C26            5.2273     2.3436    -3.9803 C.ar    
  27 C27            5.0329     1.8175    -2.7161 C.ar    
  28 C28            4.2581     2.4895    -1.7939 C.ar    
  29 C29            3.6653     3.7046    -2.1285 C.ar    
  30 O30            1.7870     6.5634    -1.6901 O.2     
  31 H31            2.1252     1.6221    -0.0092 H       
  32 H32           -0.0695     5.2768     0.0312 H       
  33 H33           -2.1857     4.0231     0.0458 H       
  34 H34           -2.1640     1.5636     0.0208 H       
  35 H35            2.3039     5.2481     0.5226 H       
  36 H36            3.2207     3.7225     0.5060 H       
  37 H37           -0.8356     4.1134    -8.2034 H       
  38 H38           -2.2165     5.2237    -7.9321 H       
  39 H39            2.2084     7.2908    -7.4378 H       
  40 H40            0.4796     4.2869    -3.9309 H       
  41 H41            5.0617     6.4719    -3.5475 H       
  42 H42            3.7022     7.6010    -3.2327 H       
  43 H43            4.7922     3.9625    -5.3082 H       
  44 H44            5.8348     1.8142    -4.6993 H       
  45 H45            5.4897     0.8758    -2.4498 H       
  46 H46            4.1105     2.0720    -0.8088 H       
@<TRIPOS>BOND
   1    1    2 1
   2    1    8 3
   3    2    3 ar
   4    2    7 ar
   5    3    4 ar
   6    3   31 1
   7    4    5 ar
   8    4    9 1
   9    5    6 ar
  10    5   32 1
  11    6    7 ar
  12    6   33 1
  13    7   34 1
  14    9   22 1
  15    9   35 1
  16    9   36 1
  17   10   11 1
  18   10   14 1
  19   11   12 1
  20   11   37 1
  21   11   38 1
  22   12   13 1
  23   13   14 ar
  24   13   15 ar
  25   14   18 ar
  26   15   16 ar
  27   15   39 1
  28   16   17 ar
  29   16   19 1
  30   17   18 ar
  31   17   20 1
  32   18   40 1
  33   19   21 1
  34   20   21 1
  35   20   23 1
  36   20   24 1
  37   21   41 1
  38   21   42 1
  39   22   23 am
  40   22   29 1
  41   23   30 2
  42   24   25 ar
  43   24   29 ar
  44   25   26 ar
  45   25   43 1
  46   26   27 ar
  47   26   44 1
  48   27   28 ar
  49   27   45 1
  50   28   29 ar
  51   28   46 1

#	End of record

