#	Name: ASD09610029
#	Creating user name:	WinNT
#	Creation time:	15. 06. 2019 21:22

#	Modifying user name:	WinNT
#	Modification time:	15. 06. 2019 21:22

#	Program:	/corina/corina34_cracker 3.40 0067  02.08.2006

@<TRIPOS>MOLECULE
ASD09610029
  52   54    0    0    0
SMALL
NO_CHARGES


@<TRIPOS>ATOM
   1 C1            -0.0172     1.4138     0.0098 C.2     
   2 C2             0.0780    -0.0010     0.0083 C.2     
   3 C3             1.2940    -0.6010    -0.1060 C.2     
   4 O4             0.9717     2.0907    -0.2048 O.2     
   5 N5            -1.2035     2.0092     0.2434 N.am    
   6 C6            -2.4326     1.2146     0.3968 C.3     
   7 C7            -3.1389     1.6599     1.6824 C.3     
   8 O8            -3.2994     3.0804     1.6635 O.3     
   9 C9            -2.0691     3.8081     1.6408 C.3     
  10 C10           -1.3071     3.4725     0.3586 C.3     
  11 C11            4.0835     1.8026     0.6614 C.ar    
  12 C12            2.9346     1.0504     0.8190 C.ar    
  13 C13            2.5172     0.2231    -0.2287 C.ar    
  14 C14            3.2889     0.1959    -1.3966 C.ar    
  15 C15            4.4220     0.9796    -1.4686 C.ar    
  16 N16            4.7813     1.7466    -0.4572 N.ar    
  17 Cl17           4.6116     2.8400     1.9493 Cl      
  18 C18            1.3932    -2.0757    -0.1076 C.ar    
  19 C19            0.8282    -2.8156    -1.1486 C.ar    
  20 C20            0.9249    -4.1915    -1.1440 C.ar    
  21 C21            1.5800    -4.8389    -0.1111 C.ar    
  22 C22            2.1418    -4.1119     0.9237 C.ar    
  23 C23            2.0575    -2.7352     0.9288 C.ar    
  24 C24            1.6816    -6.3424    -0.1130 C.3     
  25 C25            2.4236    -6.8019    -1.3697 C.3     
  26 C26            2.4474    -6.8034     1.1287 C.3     
  27 C27            0.2768    -6.9486    -0.1001 C.3     
  28 H28           -0.8146    -0.6024     0.0978 H       
  29 H29           -3.0871     1.3821    -0.4585 H       
  30 H30           -2.1796     0.1565     0.4645 H       
  31 H31           -4.1174     1.1837     1.7439 H       
  32 H32           -2.5386     1.3728     2.5457 H       
  33 H33           -2.2780     4.8775     1.6723 H       
  34 H34           -1.4649     3.5289     2.5040 H       
  35 H35           -0.3092     3.9089     0.4011 H       
  36 H36           -1.8464     3.8712    -0.5006 H       
  37 H37            2.3682     1.1004     1.7372 H       
  38 H38            3.0015    -0.4297    -2.2287 H       
  39 H39            5.0236     0.9648    -2.3654 H       
  40 H40            0.3164    -2.3117    -1.9551 H       
  41 H41            0.4881    -4.7650    -1.9482 H       
  42 H42            2.6513    -4.6235     1.7269 H       
  43 H43            2.5005    -2.1687     1.7346 H       
  44 H44            3.4244    -6.3701    -1.3789 H       
  45 H45            2.4971    -7.8894    -1.3711 H       
  46 H46            1.8780    -6.4735    -2.2543 H       
  47 H47            1.9187    -6.4761     2.0239 H       
  48 H48            2.5209    -7.8909     1.1273 H       
  49 H49            3.4482    -6.3716     1.1194 H       
  50 H50           -0.2688    -6.6201    -0.9847 H       
  51 H51            0.3503    -8.0361    -0.1014 H       
  52 H52           -0.2519    -6.6213     0.7952 H       
@<TRIPOS>BOND
   1    1    2 1
   2    1    4 2
   3    1    5 am
   4    2    3 2
   5    2   28 1
   6    3   13 1
   7    3   18 1
   8    5    6 1
   9    5   10 1
  10    6    7 1
  11    6   29 1
  12    6   30 1
  13    7    8 1
  14    7   31 1
  15    7   32 1
  16    8    9 1
  17    9   10 1
  18    9   33 1
  19    9   34 1
  20   10   35 1
  21   10   36 1
  22   11   12 ar
  23   11   16 ar
  24   11   17 1
  25   12   13 ar
  26   12   37 1
  27   13   14 ar
  28   14   15 ar
  29   14   38 1
  30   15   16 ar
  31   15   39 1
  32   18   19 ar
  33   18   23 ar
  34   19   20 ar
  35   19   40 1
  36   20   21 ar
  37   20   41 1
  38   21   22 ar
  39   21   24 1
  40   22   23 ar
  41   22   42 1
  42   23   43 1
  43   24   25 1
  44   24   27 1
  45   24   26 1
  46   25   44 1
  47   25   45 1
  48   25   46 1
  49   26   47 1
  50   26   48 1
  51   26   49 1
  52   27   50 1
  53   27   51 1
  54   27   52 1

#	End of record

