#	Name: ASD01140223
#	Creating user name:	WinNT
#	Creation time:	15. 06. 2019 19:00

#	Modifying user name:	WinNT
#	Modification time:	15. 06. 2019 19:00

#	Program:	/corina/corina34_cracker 3.40 0067  02.08.2006

@<TRIPOS>MOLECULE
ASD01140223
  77   84    0    0    0
SMALL
NO_CHARGES


@<TRIPOS>ATOM
   1 C1             0.1012     1.3813    -0.0410 C.2     
   2 C2            -0.0329     0.0337     0.0718 C.2     
   3 S3             1.5330    -0.7388    -0.1084 S.3     
   4 C4             2.3304     0.8188    -0.3171 C.2     
   5 C5             1.3886     1.8304    -0.2669 C.2     
   6 C6             3.7745     0.9956    -0.4874 C.2     
   7 N7             4.3478     1.8677    -1.2580 N.2     
   8 C8             3.5809     2.7476    -2.1432 C.3     
   9 C9             2.6842     3.6249    -1.3111 C.2     
  10 N10            1.7117     3.1901    -0.4735 N.pl3   
  11 C11           -1.2677    -0.6537     0.3032 C.1     
  12 C12            1.1331     4.2740     0.0978 C.2     
  13 C13            2.6824     4.9852    -1.2447 C.2     
  14 N14            1.7118     5.3481    -0.3642 N.2     
  15 C15            5.3305    14.1643    -3.1642 C.2     
  16 N16            4.4123    14.7079    -2.3202 N.2     
  17 C17            6.0250    15.1926    -3.7260 C.2     
  18 N18            5.5140    16.3378    -3.2135 N.pl3   
  19 C19            4.5231    16.0075    -2.3502 C.2     
  20 C20            7.1486    15.1032    -4.7241 C.3     
  21 N21            8.3524    15.7062    -4.1477 N.2     
  22 C22            8.4013    16.9583    -3.8074 C.2     
  23 C23            7.2877    17.9084    -3.8635 C.2     
  24 C24            5.9685    17.6310    -3.5530 C.2     
  25 S25            7.4394    19.5990    -4.3367 S.3     
  26 C26            5.7325    19.8833    -4.0418 C.2     
  27 C27            5.1354    18.7311    -3.6359 C.2     
  28 C28            5.0680    21.1414    -4.2038 C.1     
  29 C29            5.0397    10.4190    -3.0840 C.3     
  30 C30            4.0853     9.5370    -2.2764 C.3     
  31 C31           -2.2799    -1.2173     0.4929 C.1     
  32 C32            4.5232    22.1729    -4.3365 C.1     
  33 C33            4.3607     8.0654    -2.5918 C.3     
  34 C34            9.7025    17.4733    -3.3181 C.ar    
  35 C35           10.8863    16.8204    -3.6588 C.ar    
  36 C36           12.0946    17.3048    -3.2008 C.ar    
  37 C37           12.1326    18.4355    -2.4047 C.ar    
  38 C38           10.9612    19.0875    -2.0634 C.ar    
  39 C39            9.7475    18.6158    -2.5202 C.ar    
  40 C40            4.6605     0.0974     0.2910 C.ar    
  41 C41            5.9671    -0.1378    -0.1348 C.ar    
  42 C42            6.7874    -0.9745     0.5942 C.ar    
  43 C43            6.3154    -1.5796     1.7452 C.ar    
  44 C44            5.0199    -1.3499     2.1727 C.ar    
  45 C45            4.1923    -0.5107     1.4550 C.ar    
  46 C46            5.5392    12.7300    -3.4184 C.2     
  47 O47            4.7783    11.8155    -2.7847 O.3     
  48 O48            6.3978    12.3699    -4.1998 O.2     
  49 C49            3.5674     5.8952    -1.9891 C.2     
  50 O50            3.4550     7.2284    -1.8254 O.3     
  51 O51            4.3999     5.4446    -2.7516 O.2     
  52 H52           -0.7402     2.0540     0.0360 H       
  53 H53            4.2651     3.3694    -2.7206 H       
  54 H54            2.9751     2.1452    -2.8201 H       
  55 H55            0.3265     4.2524     0.8158 H       
  56 H56            3.9249    16.7041    -1.7816 H       
  57 H57            7.3428    14.0572    -4.9613 H       
  58 H58            6.8723    15.6385    -5.6326 H       
  59 H59            4.0838    18.6787    -3.3953 H       
  60 H60            6.0692    10.1772    -2.8196 H       
  61 H61            4.8864    10.2406    -4.1483 H       
  62 H62            4.2386     9.7154    -1.2121 H       
  63 H63            3.0558     9.7787    -2.5407 H       
  64 H64           -3.1853    -1.7213     0.6626 H       
  65 H65            4.0359    23.0954    -4.4553 H       
  66 H66            4.2074     7.8871    -3.6561 H       
  67 H67            5.3902     7.8237    -2.3275 H       
  68 H68           10.8578    15.9372    -4.2797 H       
  69 H69           13.0123    16.7999    -3.4641 H       
  70 H70           13.0805    18.8105    -2.0480 H       
  71 H71           10.9970    19.9696    -1.4413 H       
  72 H72            8.8337    19.1258    -2.2534 H       
  73 H73            6.3364     0.3335    -1.0336 H       
  74 H74            7.7996    -1.1575     0.2653 H       
  75 H75            6.9608    -2.2341     2.3122 H       
  76 H76            4.6568    -1.8253     3.0719 H       
  77 H77            3.1812    -0.3318     1.7898 H       
@<TRIPOS>BOND
   1    1    2 2
   2    1    5 1
   3    1   52 1
   4    2    3 1
   5    2   11 1
   6    3    4 1
   7    4    5 2
   8    4    6 1
   9    5   10 1
  10    6    7 2
  11    6   40 1
  12    7    8 1
  13    8    9 1
  14    8   53 1
  15    8   54 1
  16    9   10 1
  17    9   13 2
  18   10   12 1
  19   11   31 3
  20   12   14 2
  21   12   55 1
  22   13   14 1
  23   13   49 1
  24   15   16 1
  25   15   17 2
  26   15   46 1
  27   16   19 2
  28   17   18 1
  29   17   20 1
  30   18   19 1
  31   18   24 1
  32   19   56 1
  33   20   21 1
  34   20   57 1
  35   20   58 1
  36   21   22 2
  37   22   23 1
  38   22   34 1
  39   23   24 2
  40   23   25 1
  41   24   27 1
  42   25   26 1
  43   26   27 2
  44   26   28 1
  45   27   59 1
  46   28   32 3
  47   29   47 1
  48   29   30 1
  49   29   60 1
  50   29   61 1
  51   30   33 1
  52   30   62 1
  53   30   63 1
  54   31   64 1
  55   32   65 1
  56   33   50 1
  57   33   66 1
  58   33   67 1
  59   34   35 ar
  60   34   39 ar
  61   35   36 ar
  62   35   68 1
  63   36   37 ar
  64   36   69 1
  65   37   38 ar
  66   37   70 1
  67   38   39 ar
  68   38   71 1
  69   39   72 1
  70   40   41 ar
  71   40   45 ar
  72   41   42 ar
  73   41   73 1
  74   42   43 ar
  75   42   74 1
  76   43   44 ar
  77   43   75 1
  78   44   45 ar
  79   44   76 1
  80   45   77 1
  81   46   47 1
  82   46   48 2
  83   49   50 1
  84   49   51 2

#	End of record

