#	Name: ASD03091653
#	Creating user name:	WinNT
#	Creation time:	15. 06. 2019 20:31

#	Modifying user name:	WinNT
#	Modification time:	15. 06. 2019 20:31

#	Program:	/corina/corina34_cracker 3.40 0067  02.08.2006

@<TRIPOS>MOLECULE
ASD03091653
  42   44    0    0    0
SMALL
NO_CHARGES


@<TRIPOS>ATOM
   1 C1            -0.0161     1.3326     0.0094 C.2     
   2 C2             0.0021    -0.0041     0.0020 C.2     
   3 C3             1.2768    -0.5930    -0.0133 C.ar    
   4 C4             2.3072     0.3560    -0.0181 C.ar    
   5 S5             1.6170     1.9748    -0.0028 S.3     
   6 C6             3.6409    -0.0644    -0.0326 C.ar    
   7 C7             3.9427    -1.4052    -0.0428 C.ar    
   8 C8             2.9245    -2.3504    -0.0386 C.ar    
   9 C9             1.6206    -1.9658    -0.0232 C.ar    
  10 C10           -1.2365     2.1520     0.0198 C.2     
  11 O11           -2.3287     1.6163     0.0222 O.2     
  12 N12           -1.1454     3.4966     0.0266 N.am    
  13 N13            5.3565    -1.8434    -0.0587 N.pl3   
  14 O14            6.2505    -1.0161    -0.0627 O.2     
  15 O15            5.6258    -3.0312    -0.0676 O.2     
  16 N16           -2.8668     5.9161     1.8178 N.3     
  17 C17           -2.8508     4.4870     1.4778 C.3     
  18 C18           -2.3617     4.3132     0.0370 C.3     
  19 C19           -2.0573     5.6961    -0.5526 C.3     
  20 C20           -0.9887     6.3734     0.3147 C.3     
  21 C21           -1.5161     6.4907     1.7475 C.3     
  22 C22           -3.7979     6.6542     0.9532 C.3     
  23 C23           -3.3362     6.5416    -0.5025 C.3     
  24 H24           -0.9038    -0.5921     0.0079 H       
  25 H25            4.4360     0.6666    -0.0363 H       
  26 H26            3.1715    -3.4017    -0.0470 H       
  27 H27            0.8413    -2.7135    -0.0198 H       
  28 H28           -0.2745     3.9237     0.0247 H       
  29 H29           -2.1799     3.9594     2.1557 H       
  30 H30           -3.8574     4.0796     1.5717 H       
  31 H31           -3.1361     3.8259    -0.5554 H       
  32 H32           -1.7001     5.5962    -1.5776 H       
  33 H33           -0.0789     5.7731     0.3085 H       
  34 H34           -0.7754     7.3674    -0.0784 H       
  35 H35           -1.5522     7.5409     2.0370 H       
  36 H36           -0.8549     5.9491     2.4240 H       
  37 H37           -4.7978     6.2317     1.0514 H       
  38 H38           -3.8152     7.7031     1.2492 H       
  39 H39           -3.1323     7.5362    -0.8989 H       
  40 H40           -4.1144     6.0622    -1.0963 H       
  41 Cl41          11.2505    12.7031     7.4240 Cl      
  42 H42           11.2505    14.0731     7.4240 H       
@<TRIPOS>BOND
   1    1    2 2
   2    1    5 1
   3    1   10 1
   4    2    3 1
   5    2   24 1
   6    3    4 ar
   7    3    9 ar
   8    4    5 1
   9    4    6 ar
  10    6    7 ar
  11    6   25 1
  12    7    8 ar
  13    7   13 1
  14    8    9 ar
  15    8   26 1
  16    9   27 1
  17   10   11 2
  18   10   12 am
  19   12   18 1
  20   12   28 1
  21   13   14 2
  22   13   15 2
  23   16   17 1
  24   16   21 1
  25   16   22 1
  26   17   18 1
  27   17   29 1
  28   17   30 1
  29   18   19 1
  30   18   31 1
  31   19   20 1
  32   19   23 1
  33   19   32 1
  34   20   21 1
  35   20   33 1
  36   20   34 1
  37   21   35 1
  38   21   36 1
  39   22   23 1
  40   22   37 1
  41   22   38 1
  42   23   39 1
  43   23   40 1
  44   41   42 1

#	End of record

