#	Name: ASD01913361
#	Creating user name:	WinNT
#	Creation time:	15. 06. 2019 20:01

#	Modifying user name:	WinNT
#	Modification time:	15. 06. 2019 20:01

#	Program:	/corina/corina34_cracker 3.40 0067  02.08.2006

@<TRIPOS>MOLECULE
ASD01913361
  27   29    0    0    0
SMALL
NO_CHARGES


@<TRIPOS>ATOM
   1 C1            -0.0164     1.3609     0.0095 C.2     
   2 C2             0.0021    -0.0041     0.0020 C.2     
   3 C3             1.2382    -0.6977    -0.0130 C.2     
   4 C4             2.3984     0.0062    -0.0203 C.2     
   5 C5             2.3544     1.4153    -0.0128 C.2     
   6 N6             1.1487     2.0686     0.0022 N.pl3   
   7 C7             3.3450     2.3889    -0.0176 C.2     
   8 C8             2.7174     3.6249    -0.0057 C.2     
   9 N9             1.4155     3.4437     0.0061 N.2     
  10 C10           -1.2287    -0.7361     0.0098 C.1     
  11 C11           -2.2377    -1.3362     0.0162 C.1     
  12 C12           -3.4684    -2.0682     0.0240 C.ar    
  13 C13           -3.4543    -3.4655     0.0164 C.ar    
  14 C14           -4.6437    -4.1637     0.0239 C.ar    
  15 C15           -5.8707    -2.1004     0.0524 C.ar    
  16 C16           -4.6894    -1.3887     0.0451 C.ar    
  17 C17           -5.8489    -3.4840     0.0390 C.ar    
  18 H18           -0.9612     1.8841     0.0168 H       
  19 H19            1.2565    -1.7775    -0.0183 H       
  20 H20            3.3476    -0.5088    -0.0314 H       
  21 H21            4.4108     2.2147    -0.0280 H       
  22 H22            3.2174     4.5821    -0.0056 H       
  23 H23           -2.5144    -3.9973     0.0042 H       
  24 H24           -4.6344    -5.2437     0.0177 H       
  25 H25           -6.8150    -1.5766     0.0691 H       
  26 H26           -4.7078    -0.3089     0.0559 H       
  27 H27           -6.7771    -4.0360     0.0448 H       
@<TRIPOS>BOND
   1    1    2 2
   2    1    6 1
   3    1   18 1
   4    2    3 1
   5    2   10 1
   6    3    4 2
   7    3   19 1
   8    4    5 1
   9    4   20 1
  10    5    6 1
  11    5    7 2
  12    6    9 1
  13    7    8 1
  14    7   21 1
  15    8    9 2
  16    8   22 1
  17   10   11 3
  18   11   12 1
  19   12   13 ar
  20   12   16 ar
  21   13   14 ar
  22   13   23 1
  23   14   17 ar
  24   14   24 1
  25   15   16 ar
  26   15   17 ar
  27   15   25 1
  28   16   26 1
  29   17   27 1

#	End of record

