#	Name: ASD05273011
#	Creating user name:	WinNT
#	Creation time:	15. 06. 2019 20:58

#	Modifying user name:	WinNT
#	Modification time:	15. 06. 2019 20:58

#	Program:	/corina/corina34_cracker 3.40 0067  02.08.2006

@<TRIPOS>MOLECULE
ASD05273011
   3    2    0    0    0
SMALL
NO_CHARGES


@<TRIPOS>ATOM
   1 N1            -0.0144     1.2138     0.0087 N.2     
   2 O2             0.0021    -0.0041     0.0020 O.2     
   3 O3             1.0320     1.8371     0.0021 O.3     
@<TRIPOS>BOND
   1    1    2 2
   2    1    3 1

#	End of record

