#	Name: ASD01910096
#	Creating user name:	WinNT
#	Creation time:	15. 06. 2019 19:55

#	Modifying user name:	WinNT
#	Modification time:	15. 06. 2019 19:55

#	Program:	/corina/corina34_cracker 3.40 0067  02.08.2006

@<TRIPOS>MOLECULE
ASD01910096
  42   45    0    0    0
SMALL
NO_CHARGES


@<TRIPOS>ATOM
   1 C1             0.1146     0.5041     0.4096 C.ar    
   2 C2             0.3447    -0.8577     0.4560 C.ar    
   3 C3             1.6376    -1.3546     0.3916 C.ar    
   4 C4             2.7051    -0.4789     0.2795 C.ar    
   5 C5             2.4702     0.9104     0.2317 C.ar    
   6 C6             1.1732     1.3925     0.2975 C.ar    
   7 C7             4.1711    -0.6445     0.1882 C.2     
   8 N8             4.7350     0.5732     0.0944 N.am    
   9 C9             3.8015     1.5417     0.1130 C.2     
  10 C10            6.1762     0.8131    -0.0130 C.3     
  11 C11            6.6013     0.6827    -1.4530 C.ar    
  12 C12            6.4506     1.7553    -2.3221 C.ar    
  13 C13            6.8436     1.6309    -3.6487 C.ar    
  14 C14            7.3825     0.4419    -4.0989 C.ar    
  15 C15            7.5308    -0.6245    -3.2308 C.ar    
  16 C16            7.1463    -0.5020    -1.9083 C.ar    
  17 N17            5.9040     2.9577    -1.8631 N.am    
  18 C18            5.3578     3.8266    -2.7367 C.2     
  19 C19            4.8850     5.1497    -2.2677 C.ar    
  20 C20            4.3214     6.0433    -3.1754 C.ar    
  21 C21            3.8835     7.2777    -2.7216 C.ar    
  22 C22            4.0248     7.5753    -1.3754 C.ar    
  23 C23            4.5949     6.6379    -0.5286 C.ar    
  24 N24            4.9970     5.4719    -0.9846 N.ar    
  25 O25            5.2532     3.5245    -3.9091 O.2     
  26 O26            4.0166     2.7349     0.0442 O.2     
  27 O27            4.7668    -1.7028     0.1971 O.2     
  28 H28           -0.8972     0.8788     0.4565 H       
  29 H29           -0.4881    -1.5396     0.5434 H       
  30 H30            1.8116    -2.4198     0.4290 H       
  31 H31            0.9873     2.4557     0.2610 H       
  32 H32            6.4050     1.8173     0.3438 H       
  33 H33            6.7124     0.0817     0.5917 H       
  34 H34            6.7274     2.4630    -4.3273 H       
  35 H35            7.6883     0.3445    -5.1302 H       
  36 H36            7.9523    -1.5534    -3.5855 H       
  37 H37            7.2634    -1.3366    -1.2330 H       
  38 H38            5.9180     3.1664    -0.9159 H       
  39 H39            4.2272     5.7782    -4.2182 H       
  40 H40            3.4427     7.9916    -3.4017 H       
  41 H41            3.6940     8.5284    -0.9900 H       
  42 H42            4.7068     6.8666     0.5210 H       
@<TRIPOS>BOND
   1    1    2 ar
   2    1    6 ar
   3    1   28 1
   4    2    3 ar
   5    2   29 1
   6    3    4 ar
   7    3   30 1
   8    4    5 ar
   9    4    7 1
  10    5    6 ar
  11    5    9 1
  12    6   31 1
  13    7    8 am
  14    7   27 2
  15    8    9 am
  16    8   10 1
  17    9   26 2
  18   10   11 1
  19   10   32 1
  20   10   33 1
  21   11   12 ar
  22   11   16 ar
  23   12   13 ar
  24   12   17 1
  25   13   14 ar
  26   13   34 1
  27   14   15 ar
  28   14   35 1
  29   15   16 ar
  30   15   36 1
  31   16   37 1
  32   17   18 am
  33   17   38 1
  34   18   19 1
  35   18   25 2
  36   19   20 ar
  37   19   24 ar
  38   20   21 ar
  39   20   39 1
  40   21   22 ar
  41   21   40 1
  42   22   23 ar
  43   22   41 1
  44   23   24 ar
  45   23   42 1

#	End of record

