#	Name: ASD00131008
#	Creating user name:	WinNT
#	Creation time:	15. 06. 2019 18:31

#	Modifying user name:	WinNT
#	Modification time:	15. 06. 2019 18:31

#	Program:	/corina/corina34_cracker 3.40 0067  02.08.2006

@<TRIPOS>MOLECULE
ASD00131008
  61   65    0    0    0
SMALL
NO_CHARGES


@<TRIPOS>ATOM
   1 N1             1.4397     1.3706    -1.2448 N.am    
   2 C2             1.4529     0.0269    -1.2533 C.2     
   3 C3             1.2666    -0.7335    -0.0183 C.2     
   4 C4             1.0735    -0.0432     1.1806 C.2     
   5 C5             1.0666     1.4229     1.1447 C.ar    
   6 C6             0.8767     2.1632     2.3174 C.ar    
   7 C7             0.8727     3.5280     2.2660 C.ar    
   8 C8             1.0556     4.1879     1.0586 C.ar    
   9 C9             1.2442     3.4792    -0.1079 C.ar    
  10 C10            1.2518     2.0870    -0.0807 C.ar    
  11 C11            1.2818    -2.2014    -0.0382 C.2     
  12 O12            2.3363    -2.7974    -0.1536 O.2     
  13 N13            0.1277    -2.8888     0.0712 N.am    
  14 O14            1.6220    -0.5657    -2.3041 O.2     
  15 C15            1.6359     2.0939    -2.5036 C.3     
  16 C16            0.2801     2.3331    -3.1710 C.3     
  17 C17           -0.5618     3.2641    -2.2962 C.3     
  18 C18            0.4933     2.9765    -4.5427 C.3     
  19 O19            0.8975    -0.7081     2.3415 O.3     
  20 C20            0.6996    -6.2721    -1.5345 C.3     
  21 N21            1.5329    -6.8329    -0.4662 N.3     
  22 C22            1.0363    -6.4793     0.8676 C.3     
  23 C23            1.0244    -4.9570     1.0293 C.3     
  24 C24            0.1296    -4.3483    -0.0550 C.3     
  25 C25           -1.2962    -4.8795     0.1056 C.3     
  26 C26           -1.3015    -6.4033    -0.0315 C.3     
  27 C27           -0.7311    -6.8021    -1.4085 C.3     
  28 C28            0.6794    -4.7450    -1.4288 C.3     
  29 C29           -0.3863    -7.0144     1.0496 C.3     
  30 C30            1.6638    -8.2890    -0.6102 C.3     
  31 H31            0.7334     1.6565     3.2603 H       
  32 H32            0.7257     4.0980     3.1714 H       
  33 H33            1.0497     5.2676     1.0332 H       
  34 H34            1.3853     4.0027    -1.0420 H       
  35 H35           -0.7043    -2.4171     0.2336 H       
  36 H36            2.1154     3.0516    -2.3014 H       
  37 H37            2.2683     1.5038    -3.1669 H       
  38 H38           -0.2379     1.3818    -3.2925 H       
  39 H39           -1.5277     3.4345    -2.7717 H       
  40 H40           -0.7137     2.8057    -1.3191 H       
  41 H41           -0.0438     4.2154    -2.1747 H       
  42 H42            1.0931     2.3132    -5.1659 H       
  43 H43           -0.4726     3.1469    -5.0182 H       
  44 H44            1.0113     3.9278    -4.4211 H       
  45 H45            0.8426    -1.6682     2.2405 H       
  46 H46            1.1089    -6.5603    -2.5027 H       
  47 H47            1.6857    -6.9191     1.6245 H       
  48 H48            0.6334    -4.6977     2.0131 H       
  49 H49            2.0384    -4.5710     0.9247 H       
  50 H50           -1.6772    -4.6030     1.0887 H       
  51 H51           -1.9336    -4.4444    -0.6641 H       
  52 H52           -2.3194    -6.7770     0.0790 H       
  53 H53           -1.3523    -6.3648    -2.1901 H       
  54 H54           -0.7280    -7.8876    -1.5072 H       
  55 H55            1.6921    -4.3580    -1.5421 H       
  56 H56            0.0405    -4.3336    -2.2102 H       
  57 H57           -0.3818    -8.1007     0.9595 H       
  58 H58           -0.7601    -6.7299     2.0332 H       
  59 H59            2.1251    -8.5191    -1.5706 H       
  60 H60            2.2867    -8.6792     0.1947 H       
  61 H61            0.6769    -8.7491    -0.5616 H       
@<TRIPOS>BOND
   1    1    2 am
   2    1   10 1
   3    1   15 1
   4    2    3 1
   5    2   14 2
   6    3    4 2
   7    3   11 1
   8    4    5 1
   9    4   19 1
  10    5    6 ar
  11    5   10 ar
  12    6    7 ar
  13    6   31 1
  14    7    8 ar
  15    7   32 1
  16    8    9 ar
  17    8   33 1
  18    9   10 ar
  19    9   34 1
  20   11   12 2
  21   11   13 am
  22   13   24 1
  23   13   35 1
  24   15   16 1
  25   15   36 1
  26   15   37 1
  27   16   17 1
  28   16   18 1
  29   16   38 1
  30   17   39 1
  31   17   40 1
  32   17   41 1
  33   18   42 1
  34   18   43 1
  35   18   44 1
  36   19   45 1
  37   20   21 1
  38   20   27 1
  39   20   28 1
  40   20   46 1
  41   21   22 1
  42   21   30 1
  43   22   23 1
  44   22   29 1
  45   22   47 1
  46   23   24 1
  47   23   48 1
  48   23   49 1
  49   24   25 1
  50   24   28 1
  51   25   26 1
  52   25   50 1
  53   25   51 1
  54   26   27 1
  55   26   29 1
  56   26   52 1
  57   27   53 1
  58   27   54 1
  59   28   55 1
  60   28   56 1
  61   29   57 1
  62   29   58 1
  63   30   59 1
  64   30   60 1
  65   30   61 1

#	End of record

