#	Name: ASD01885396
#	Creating user name:	WinNT
#	Creation time:	15. 06. 2019 19:49

#	Modifying user name:	WinNT
#	Modification time:	15. 06. 2019 19:49

#	Program:	/corina/corina34_cracker 3.40 0067  02.08.2006

@<TRIPOS>MOLECULE
ASD01885396
  38   41    0    0    0
SMALL
NO_CHARGES


@<TRIPOS>ATOM
   1 C1            -0.0169     1.3916     0.0097 C.ar    
   2 C2             0.0021    -0.0041     0.0020 C.ar    
   3 N3            -1.1140    -0.7738     0.0203 N.2     
   4 C4            -2.1905    -0.5694    -0.6465 C.2     
   5 C5            -2.3521     0.6307    -1.5423 C.3     
   6 C6            -2.2801     1.8694    -0.6854 C.2     
   7 N7            -1.1829     2.1456     0.0191 N.am    
   8 C8             1.1870     2.0928     0.0020 C.ar    
   9 C9             2.4010     1.4167    -0.0188 C.ar    
  10 C10            2.4182     0.0205    -0.0321 C.ar    
  11 C11            1.2376    -0.6782    -0.0217 C.ar    
  12 C12           -3.2983    -1.5344    -0.5336 C.ar    
  13 C13           -3.1938    -2.6680     0.2882 C.ar    
  14 C14           -4.2768    -3.5275     0.3421 C.ar    
  15 N15           -5.3606    -3.2687    -0.3652 N.ar    
  16 N16           -5.4641    -2.2356    -1.1182 N.ar    
  17 C17           -4.4955    -1.3502    -1.2381 C.ar    
  18 O18           -3.2299     2.6223    -0.6380 O.2     
  19 C19            3.6743     2.1758    -0.0273 C.ar    
  20 C20            4.6831     1.8604     0.8810 C.ar    
  21 C21            5.8666     2.5704     0.8686 C.ar    
  22 C22            6.0538     3.5943    -0.0424 C.ar    
  23 C23            5.0575     3.9140    -0.9469 C.ar    
  24 C24            3.8702     3.2062    -0.9493 C.ar    
  25 F25            2.8971     3.5186    -1.8328 F       
  26 H26           -1.5517     0.6481    -2.2821 H       
  27 H27           -3.3180     0.5870    -2.0453 H       
  28 H28           -1.2004     2.9337     0.5843 H       
  29 H29            1.1767     3.1727     0.0119 H       
  30 H30            3.3596    -0.5085    -0.0509 H       
  31 H31            1.2563    -1.7580    -0.0319 H       
  32 H32           -2.2979    -2.8628     0.8589 H       
  33 H33           -4.2350    -4.4103     0.9628 H       
  34 H34           -4.6202    -0.4924    -1.8823 H       
  35 H35            4.5389     1.0618     1.5937 H       
  36 H36            6.6485     2.3261     1.5724 H       
  37 H37            6.9818     4.1468    -0.0472 H       
  38 H38            5.2091     4.7149    -1.6553 H       
@<TRIPOS>BOND
   1    1    2 ar
   2    1    8 ar
   3    1    7 1
   4    2    3 1
   5    2   11 ar
   6    3    4 2
   7    4    5 1
   8    4   12 1
   9    5    6 1
  10    5   26 1
  11    5   27 1
  12    6    7 am
  13    6   18 2
  14    7   28 1
  15    8    9 ar
  16    8   29 1
  17    9   10 ar
  18    9   19 1
  19   10   11 ar
  20   10   30 1
  21   11   31 1
  22   12   13 ar
  23   12   17 ar
  24   13   14 ar
  25   13   32 1
  26   14   15 ar
  27   14   33 1
  28   15   16 ar
  29   16   17 ar
  30   17   34 1
  31   19   20 ar
  32   19   24 ar
  33   20   21 ar
  34   20   35 1
  35   21   22 ar
  36   21   36 1
  37   22   23 ar
  38   22   37 1
  39   23   24 ar
  40   23   38 1
  41   24   25 1

#	End of record

