#	Name: ASD01900416
#	Creating user name:	WinNT
#	Creation time:	15. 06. 2019 19:51

#	Modifying user name:	WinNT
#	Modification time:	15. 06. 2019 19:51

#	Program:	/corina/corina34_cracker 3.40 0067  02.08.2006

@<TRIPOS>MOLECULE
ASD01900416
  35   37    0    0    0
SMALL
NO_CHARGES


@<TRIPOS>ATOM
   1 C1            -0.0170     1.4038     0.0098 C.ar    
   2 C2             0.0021    -0.0041     0.0020 C.ar    
   3 C3             1.2302    -0.6643    -0.0128 C.ar    
   4 C4             2.3817     0.0979    -0.0193 C.ar    
   5 C5             2.2883     1.4835    -0.0110 C.ar    
   6 N6             1.1233     2.0902     0.0026 N.ar    
   7 N7            -2.1422     0.6956     0.0262 N.2     
   8 N8            -1.3022    -0.4227     0.0122 N.pl3   
   9 C9            -1.4296     1.7905     0.0312 C.2     
  10 N10           -1.9266     3.0975     0.0450 N.pl3   
  11 C11           -3.3727     3.3312     0.0660 C.3     
  12 C12           -3.6459     4.8365     0.0778 C.3     
  13 C13           -5.1525     5.0822    -0.0260 C.3     
  14 C14           -5.4258     6.5876    -0.0142 C.3     
  15 C15           -4.8991     7.1914     1.2892 C.3     
  16 C16           -3.3926     6.9457     1.3930 C.3     
  17 C17           -3.1193     5.4403     1.3812 C.3     
  18 H18            1.2794    -1.7432    -0.0187 H       
  19 H19            3.3497    -0.3810    -0.0305 H       
  20 H20            3.1923     2.0745    -0.0158 H       
  21 H21           -1.5963    -1.3470     0.0096 H       
  22 H22           -1.3138     3.8494     0.0405 H       
  23 H23           -3.8255     2.8866    -0.8202 H       
  24 H24           -3.8011     2.8772     0.9596 H       
  25 H25           -3.1425     5.3038    -0.7685 H       
  26 H26           -5.5277     4.6521    -0.9546 H       
  27 H27           -5.6560     4.6150     0.8204 H       
  28 H28           -4.9223     7.0549    -0.8606 H       
  29 H29           -6.4991     6.7626    -0.0881 H       
  30 H30           -5.0938     8.2638     1.2976 H       
  31 H31           -5.4026     6.7241     2.1356 H       
  32 H32           -2.8891     7.4130     0.5467 H       
  33 H33           -3.0174     7.3758     2.3216 H       
  34 H34           -3.6228     4.9731     2.2276 H       
  35 H35           -2.0460     5.2653     1.4552 H       
@<TRIPOS>BOND
   1    1    2 ar
   2    1    6 ar
   3    1    9 1
   4    2    3 ar
   5    2    8 1
   6    3    4 ar
   7    3   18 1
   8    4    5 ar
   9    4   19 1
  10    5    6 ar
  11    5   20 1
  12    7    8 1
  13    7    9 2
  14    8   21 1
  15    9   10 1
  16   10   11 1
  17   10   22 1
  18   11   12 1
  19   11   23 1
  20   11   24 1
  21   12   13 1
  22   12   17 1
  23   12   25 1
  24   13   14 1
  25   13   26 1
  26   13   27 1
  27   14   15 1
  28   14   28 1
  29   14   29 1
  30   15   16 1
  31   15   30 1
  32   15   31 1
  33   16   17 1
  34   16   32 1
  35   16   33 1
  36   17   34 1
  37   17   35 1

#	End of record

