#	Name: ASD01150806
#	Creating user name:	WinNT
#	Creation time:	15. 06. 2019 19:05

#	Modifying user name:	WinNT
#	Modification time:	15. 06. 2019 19:05

#	Program:	/corina/corina34_cracker 3.40 0067  02.08.2006

@<TRIPOS>MOLECULE
ASD01150806
  56   57    0    0    0
SMALL
NO_CHARGES


@<TRIPOS>ATOM
   1 C1            -0.0159     1.3215     0.0093 C.ar    
   2 N2             0.0021    -0.0041     0.0020 N.ar    
   3 C3             1.1478    -0.6644    -0.0124 C.ar    
   4 C4             2.3381     0.0464    -0.0200 C.ar    
   5 C5             2.2832     1.4313    -0.0120 C.ar    
   6 N6             1.1040     2.0304     0.0024 N.ar    
   7 C7             3.5518     2.2448    -0.0192 C.3     
   8 S8            -1.5652     2.1607     0.0211 S.3     
   9 C9            -0.9924     3.8777     0.0278 C.3     
  10 C10           -2.1994     4.8179     0.0385 C.3     
  11 C11           -1.7153     6.2693     0.0442 C.3     
  12 C12           -2.9223     7.2095     0.0549 C.3     
  13 C13           -2.4382     8.6609     0.0606 C.3     
  14 C14           -3.6452     9.6010     0.0713 C.3     
  15 C15            1.1594    -2.1713    -0.0202 C.3     
  16 N16            1.0559    -2.6688     1.3581 N.3     
  17 C17            0.8261    -4.1191     1.3783 C.3     
  18 C18            0.8689    -4.6237     2.8224 C.3     
  19 C19           -0.2081    -3.9061     3.6408 C.3     
  20 C20            0.0258    -2.3948     3.5637 C.3     
  21 C21            0.0075    -1.9548     2.0980 C.3     
  22 C22           -1.0809    -1.6669     4.3294 C.3     
  23 C23            0.6077    -6.1311     2.8448 C.3     
  24 H24            3.2877    -0.4679    -0.0314 H       
  25 H25            3.8482     2.4465    -1.0486 H       
  26 H26            3.3819     3.1873     0.5013 H       
  27 H27            4.3427     1.6890     0.4844 H       
  28 H28           -0.3859     4.0550     0.9159 H       
  29 H29           -0.3942     4.0647    -0.8640 H       
  30 H30           -2.8060     4.6407    -0.8496 H       
  31 H31           -2.7977     4.6310     0.9303 H       
  32 H32           -1.1088     6.4466     0.9323 H       
  33 H33           -1.1171     6.4562    -0.8476 H       
  34 H34           -3.5289     7.0322    -0.8332 H       
  35 H35           -3.5206     7.0225     0.9467 H       
  36 H36           -1.8317     8.8381     0.9487 H       
  37 H37           -1.8400     8.8478    -0.8312 H       
  38 H38           -4.2435     9.4141     0.9631 H       
  39 H39           -3.3004    10.6350     0.0753 H       
  40 H40           -4.2518     9.4238    -0.8168 H       
  41 H41            0.3147    -2.5382    -0.6033 H       
  42 H42            2.0893    -2.5252    -0.4653 H       
  43 H43           -0.1501    -4.3382     0.9458 H       
  44 H44            1.6012    -4.6177     0.7962 H       
  45 H45            1.8496    -4.4173     3.2511 H       
  46 H46           -1.1918    -4.1435     3.2359 H       
  47 H47           -0.1527    -4.2307     4.6798 H       
  48 H48            0.9932    -2.1533     4.0040 H       
  49 H49            0.1879    -0.8815     2.0388 H       
  50 H50           -0.9649    -2.1840     1.6622 H       
  51 H51           -1.0696    -1.9833     5.3724 H       
  52 H52           -0.9139    -0.5912     4.2742 H       
  53 H53           -2.0476    -1.9077     3.8871 H       
  54 H54            1.3726    -6.6411     2.2592 H       
  55 H55            0.6383    -6.4899     3.8736 H       
  56 H56           -0.3739    -6.3361     2.4175 H       
@<TRIPOS>BOND
   1    1    2 ar
   2    1    6 ar
   3    1    8 1
   4    2    3 ar
   5    3    4 ar
   6    3   15 1
   7    4    5 ar
   8    4   24 1
   9    5    6 ar
  10    5    7 1
  11    7   25 1
  12    7   26 1
  13    7   27 1
  14    8    9 1
  15    9   10 1
  16    9   28 1
  17    9   29 1
  18   10   11 1
  19   10   30 1
  20   10   31 1
  21   11   12 1
  22   11   32 1
  23   11   33 1
  24   12   13 1
  25   12   34 1
  26   12   35 1
  27   13   14 1
  28   13   36 1
  29   13   37 1
  30   14   38 1
  31   14   39 1
  32   14   40 1
  33   15   16 1
  34   15   41 1
  35   15   42 1
  36   16   17 1
  37   16   21 1
  38   17   18 1
  39   17   43 1
  40   17   44 1
  41   18   19 1
  42   18   23 1
  43   18   45 1
  44   19   20 1
  45   19   46 1
  46   19   47 1
  47   20   21 1
  48   20   22 1
  49   20   48 1
  50   21   49 1
  51   21   50 1
  52   22   51 1
  53   22   52 1
  54   22   53 1
  55   23   54 1
  56   23   55 1
  57   23   56 1

#	End of record

