#	Name: ASD01881739
#	Creating user name:	WinNT
#	Creation time:	15. 06. 2019 19:43

#	Modifying user name:	WinNT
#	Modification time:	15. 06. 2019 19:43

#	Program:	/corina/corina34_cracker 3.40 0067  02.08.2006

@<TRIPOS>MOLECULE
ASD01881739
  43   45    0    0    0
SMALL
NO_CHARGES


@<TRIPOS>ATOM
   1 C1            -0.0184     1.5028     0.0103 C.2     
   2 C2             0.0021    -0.0041     0.0020 C.3     
   3 C3             1.4513    -0.4944    -0.0145 C.3     
   4 O4             1.0197     2.1211     0.0037 O.2     
   5 O5            -1.1898     2.1580     0.0194 O.3     
   6 C6            -0.7002    -0.5305     1.2552 C.3     
   7 C7            -0.7241    -0.5171    -1.2431 C.3     
   8 C8            -1.1335     3.6089     0.0270 C.3     
   9 O9            -0.7728     4.0785    -1.2735 O.3     
  10 N10           -4.4571     3.9934    -5.3260 N.pl3   
  11 N11           -3.6160     4.5324    -6.3108 N.2     
  12 N12           -2.4579     4.7677    -5.8028 N.2     
  13 C13           -2.4381     4.4199    -4.5006 C.ar    
  14 C14           -3.7103     3.9204    -4.1723 C.ar    
  15 C15           -1.4462     4.4699    -3.5114 C.ar    
  16 C16           -1.7329     4.0308    -2.2354 C.ar    
  17 C17           -2.9984     3.5387    -1.9252 C.ar    
  18 C18           -3.9748     3.4827    -2.8794 C.ar    
  19 C19           -5.8565     3.5930    -5.4914 C.3     
  20 C20           -5.9202     2.1240    -5.9143 C.3     
  21 C21           -7.3037     1.4802    -6.0258 C.3     
  22 C22           -6.5092     1.8101    -7.2911 C.3     
  23 Br23           0.2749     5.1362    -3.9235 Br      
  24 H24            1.9686    -0.1289     0.8726 H       
  25 H25            1.4661    -1.5843    -0.0204 H       
  26 H26            1.9516    -0.1193    -0.9073 H       
  27 H27           -1.7327    -0.1812     1.2669 H       
  28 H28           -0.6854    -1.6204     1.2492 H       
  29 H29           -0.1829    -0.1650     2.1423 H       
  30 H30           -0.2237    -0.1421    -2.1359 H       
  31 H31           -0.7093    -1.6070    -1.2491 H       
  32 H32           -1.7565    -0.1678    -1.2314 H       
  33 H33           -2.1100     4.0090     0.2998 H       
  34 H34           -0.3898     3.9399     0.7520 H       
  35 H35           -3.2094     3.1979    -0.9223 H       
  36 H36           -4.9529     3.0992    -2.6290 H       
  37 H37           -6.3855     3.7225    -4.5473 H       
  38 H38           -6.3235     4.2122    -6.2574 H       
  39 H39           -5.1004     1.4976    -5.5626 H       
  40 H40           -7.3940     0.4302    -5.7477 H       
  41 H41           -8.1685     2.1033    -5.7978 H       
  42 H42           -6.8514     2.6501    -7.8955 H       
  43 H43           -6.0769     0.9770    -7.8454 H       
@<TRIPOS>BOND
   1    1    2 1
   2    1    4 2
   3    1    5 1
   4    2    3 1
   5    2    6 1
   6    2    7 1
   7    3   24 1
   8    3   25 1
   9    3   26 1
  10    5    8 1
  11    6   27 1
  12    6   28 1
  13    6   29 1
  14    7   30 1
  15    7   31 1
  16    7   32 1
  17    8    9 1
  18    8   33 1
  19    8   34 1
  20    9   16 1
  21   10   11 1
  22   10   14 1
  23   10   19 1
  24   11   12 2
  25   12   13 1
  26   13   14 ar
  27   13   15 ar
  28   14   18 ar
  29   15   16 ar
  30   15   23 1
  31   16   17 ar
  32   17   18 ar
  33   17   35 1
  34   18   36 1
  35   19   20 1
  36   19   37 1
  37   19   38 1
  38   20   21 1
  39   20   22 1
  40   20   39 1
  41   21   22 1
  42   21   40 1
  43   21   41 1
  44   22   42 1
  45   22   43 1

#	End of record

