#	Name: ASD01890405
#	Creating user name:	WinNT
#	Creation time:	15. 06. 2019 19:50

#	Modifying user name:	WinNT
#	Modification time:	15. 06. 2019 19:50

#	Program:	/corina/corina34_cracker 3.40 0067  02.08.2006

@<TRIPOS>MOLECULE
ASD01890405
  51   53    0    0    0
SMALL
NO_CHARGES


@<TRIPOS>ATOM
   1 C1             0.9593     0.1778    -0.8757 C.2     
   2 C2            -0.4136     0.0722    -0.2632 C.3     
   3 C3            -1.3632    -0.5391    -1.2609 C.2     
   4 O4             1.2102    -0.4102    -1.9010 O.2     
   5 O5             1.9016     0.9296    -0.2853 O.3     
   6 O6            -0.9315    -1.1471    -2.2117 O.2     
   7 O7            -2.6885    -0.4082    -1.0934 O.3     
   8 C8            -0.3484    -0.8096     0.9855 C.3     
   9 C9            -1.7608    -1.0216     1.5343 C.3     
  10 C10           -2.3035     0.2885     2.0441 C.2     
  11 O11           -1.5911     1.2693     2.0744 O.2     
  12 C12            1.4032    -2.5447     1.2424 C.ar    
  13 C13            0.2570    -2.1426     0.6280 C.ar    
  14 C14           -0.3652    -2.9451    -0.3260 C.ar    
  15 C15            0.1554    -4.1544    -0.6718 C.ar    
  16 C16            1.3376    -4.6031    -0.0593 C.ar    
  17 C17            1.9047    -5.8459    -0.3898 C.ar    
  18 C18            3.0506    -6.2478     0.2244 C.ar    
  19 C19            3.6728    -5.4452     1.1790 C.ar    
  20 C20            3.1525    -4.2361     1.5247 C.ar    
  21 C21            1.9706    -3.7867     0.9112 C.ar    
  22 C22           -3.6979     0.3777     2.5051 C.ar    
  23 C23           -4.2383     1.6138     2.8746 C.ar    
  24 C24           -5.5455     1.6894     3.3056 C.ar    
  25 C25           -6.3232     0.5455     3.3732 C.ar    
  26 C26           -5.7950    -0.6819     3.0095 C.ar    
  27 C27           -4.4914    -0.7724     2.5706 C.ar    
  28 I28           -8.3086     0.6724     4.0298 I       
  29 C29            3.2282     0.9070    -0.8752 C.3     
  30 C30           -3.5432    -1.0228    -2.0934 C.3     
  31 H31           -0.7660     1.0663     0.0120 H       
  32 H32            0.2663    -0.3226     1.7425 H       
  33 H33           -2.4062    -1.3982     0.7408 H       
  34 H34           -1.7289    -1.7438     2.3501 H       
  35 H35            1.8766    -1.9102     1.9771 H       
  36 H36           -1.2742    -2.6027    -0.7980 H       
  37 H37           -0.3380    -4.7660    -1.4127 H       
  38 H38            1.4333    -6.4788    -1.1271 H       
  39 H39            3.4843    -7.2033    -0.0314 H       
  40 H40            4.5813    -5.7880     1.6518 H       
  41 H41            3.6452    -3.6252     2.2666 H       
  42 H42           -3.6329     2.5066     2.8227 H       
  43 H43           -5.9641     2.6430     3.5916 H       
  44 H44           -6.4074    -1.5697     3.0652 H       
  45 H45           -4.0823    -1.7295     2.2824 H       
  46 H46            3.9114     1.4876    -0.2554 H       
  47 H47            3.5805    -0.1227    -0.9379 H       
  48 H48            3.1886     1.3389    -1.8752 H       
  49 H49           -3.3275    -0.5910    -3.0707 H       
  50 H50           -3.3561    -2.0962    -2.1212 H       
  51 H51           -4.5877    -0.8425    -1.8391 H       
@<TRIPOS>BOND
   1    1    2 1
   2    1    4 2
   3    1    5 1
   4    2    3 1
   5    2    8 1
   6    2   31 1
   7    3    6 2
   8    3    7 1
   9    5   29 1
  10    7   30 1
  11    8    9 1
  12    8   13 1
  13    8   32 1
  14    9   10 1
  15    9   33 1
  16    9   34 1
  17   10   11 2
  18   10   22 1
  19   12   13 ar
  20   12   21 ar
  21   12   35 1
  22   13   14 ar
  23   14   15 ar
  24   14   36 1
  25   15   16 ar
  26   15   37 1
  27   16   17 ar
  28   16   21 ar
  29   17   18 ar
  30   17   38 1
  31   18   19 ar
  32   18   39 1
  33   19   20 ar
  34   19   40 1
  35   20   21 ar
  36   20   41 1
  37   22   23 ar
  38   22   27 ar
  39   23   24 ar
  40   23   42 1
  41   24   25 ar
  42   24   43 1
  43   25   26 ar
  44   25   28 1
  45   26   27 ar
  46   26   44 1
  47   27   45 1
  48   29   46 1
  49   29   47 1
  50   29   48 1
  51   30   49 1
  52   30   50 1
  53   30   51 1

#	End of record

