#	Name: ASD00431175
#	Creating user name:	WinNT
#	Creation time:	15. 06. 2019 18:35

#	Modifying user name:	WinNT
#	Modification time:	15. 06. 2019 18:35

#	Program:	/corina/corina34_cracker 3.40 0067  02.08.2006

@<TRIPOS>MOLECULE
ASD00431175
  51   54    0    0    0
SMALL
NO_CHARGES


@<TRIPOS>ATOM
   1 C1             0.2934     1.3521    -0.1716 C.3     
   2 C2             0.3409    -0.1768    -0.2049 C.3     
   3 C3             1.6413     0.6293    -0.2145 C.3     
   4 C4            -0.1557     2.0617    -1.4229 C.2     
   5 O5            -0.4627     1.4214    -2.4061 O.2     
   6 N6            -0.2163     3.4078    -1.4493 N.am    
   7 C7            -0.6530     4.0977    -2.6657 C.3     
   8 C8            -2.1809     4.1748    -2.6878 C.3     
   9 O9            -0.0485     6.3515    -1.6637 O.3     
  10 N10            0.4800     7.3878    -2.0068 N.2     
  11 C11            0.8417     7.3125    -3.2646 C.2     
  12 N12            0.4814     6.0852    -3.7095 N.2     
  13 C13           -0.0794     5.4911    -2.6864 C.2     
  14 S14            1.9950     8.2545    -5.7400 S.3     
  15 C15            2.6225     9.8435    -5.6789 C.2     
  16 N16            2.4587    10.3471    -4.4941 N.2     
  17 C17            1.8706     9.5880    -3.5964 C.2     
  18 C18            1.5146     8.3670    -4.0486 C.2     
  19 O19            3.2069    10.4851    -6.7184 O.3     
  20 C20            3.5656    11.7852    -6.5458 C.ar    
  21 C21            4.5628    12.1152    -5.6397 C.ar    
  22 C22            4.9271    13.4359    -5.4644 C.ar    
  23 C23            4.2955    14.4323    -6.1941 C.ar    
  24 C24            3.2981    14.1024    -7.0998 C.ar    
  25 C25            2.9383    12.7812    -7.2800 C.ar    
  26 O26            4.6539    15.7325    -6.0211 O.3     
  27 C27            5.5883    16.0146    -4.9773 C.3     
  28 C28            7.0060    16.0299    -5.5524 C.3     
  29 C29            5.2716    17.3803    -4.3647 C.3     
  30 H30            0.0063     1.8264     0.7669 H       
  31 H31            0.0851    -0.7084     0.7117 H       
  32 H32            0.0473    -0.6694    -1.1318 H       
  33 H33            2.2031     0.6671    -1.1478 H       
  34 H34            2.2409     0.6281     0.6958 H       
  35 H35            0.0292     3.9199    -0.6629 H       
  36 H36           -0.3042     3.5482    -3.5401 H       
  37 H37           -2.5057     4.6880    -3.5929 H       
  38 H38           -2.5958     3.1669    -2.6728 H       
  39 H39           -2.5296     4.7243    -1.8134 H       
  40 H40            1.6883     9.9134    -2.5829 H       
  41 H41            5.0541    11.3395    -5.0711 H       
  42 H42            5.7035    13.6928    -4.7590 H       
  43 H43            2.8059    14.8784    -7.6673 H       
  44 H44            2.1650    12.5239    -7.9887 H       
  45 H45            5.5165    15.2458    -4.2079 H       
  46 H46            7.7187    16.2450    -4.7562 H       
  47 H47            7.2316    15.0569    -5.9888 H       
  48 H48            7.0778    16.7986    -6.3218 H       
  49 H49            4.2616    17.3694    -3.9551 H       
  50 H50            5.9843    17.5955    -3.5686 H       
  51 H51            5.3433    18.1491    -5.1341 H       
@<TRIPOS>BOND
   1    1    2 1
   2    1    3 1
   3    1    4 1
   4    1   30 1
   5    2    3 1
   6    2   31 1
   7    2   32 1
   8    3   33 1
   9    3   34 1
  10    4    5 2
  11    4    6 am
  12    6    7 1
  13    6   35 1
  14    7    8 1
  15    7   13 1
  16    7   36 1
  17    8   37 1
  18    8   38 1
  19    8   39 1
  20    9   10 1
  21    9   13 1
  22   10   11 2
  23   11   12 1
  24   11   18 1
  25   12   13 2
  26   14   15 1
  27   14   18 1
  28   15   16 2
  29   15   19 1
  30   16   17 1
  31   17   18 2
  32   17   40 1
  33   19   20 1
  34   20   21 ar
  35   20   25 ar
  36   21   22 ar
  37   21   41 1
  38   22   23 ar
  39   22   42 1
  40   23   24 ar
  41   23   26 1
  42   24   25 ar
  43   24   43 1
  44   25   44 1
  45   26   27 1
  46   27   28 1
  47   27   29 1
  48   27   45 1
  49   28   46 1
  50   28   47 1
  51   28   48 1
  52   29   49 1
  53   29   50 1
  54   29   51 1

#	End of record

