#	Name: ASD08150417
#	Creating user name:	WinNT
#	Creation time:	15. 06. 2019 21:16

#	Modifying user name:	WinNT
#	Modification time:	15. 06. 2019 21:16

#	Program:	/corina/corina34_cracker 3.40 0067  02.08.2006

@<TRIPOS>MOLECULE
ASD08150417
  43   47    0    0    0
SMALL
NO_CHARGES


@<TRIPOS>ATOM
   1 N1             0.4517     2.0825     1.7653 N.am    
   2 C2             0.7189     1.1327     2.6825 C.2     
   3 C3             1.9327     0.4165     2.6502 C.2     
   4 C4             2.8537     0.6763     1.6876 C.2     
   5 C5             2.5757     1.6747     0.7207 C.ar    
   6 C6             3.4963     1.9830    -0.2990 C.ar    
   7 N7             3.2371     2.9042    -1.1899 N.ar    
   8 C8             2.0920     3.6033    -1.1869 C.ar    
   9 C9             1.1079     3.3597    -0.1973 C.ar    
  10 C10            1.3579     2.3695     0.7816 C.ar    
  11 C11           -0.0819     4.0942    -0.2027 C.ar    
  12 C12           -0.2858     5.0554    -1.1793 C.ar    
  13 C13            0.6925     5.2909    -2.1552 C.ar    
  14 C14            1.8548     4.5848    -2.1632 C.ar    
  15 O15           -0.0999     0.8895     3.5526 O.2     
  16 C16           -1.5455     5.8387    -1.1925 C.ar    
  17 C17           -0.7637     2.7763     1.8158 C.ar    
  18 C18           -1.8845     2.2624     1.1775 C.ar    
  19 C19           -3.0830     2.9489     1.2286 C.ar    
  20 C20           -3.1659     4.1491     1.9164 C.ar    
  21 C21           -2.0485     4.6628     2.5530 C.ar    
  22 C22           -0.8509     3.9766     2.5093 C.ar    
  23 Cl23          -4.4850     2.3076     0.4305 Cl      
  24 C24           -1.5286     7.1842    -1.5554 C.ar    
  25 F25           -4.3380     4.8191     1.9656 F       
  26 C26           -2.7036     7.9080    -1.5664 C.ar    
  27 C27           -3.8965     7.3006    -1.2177 C.ar    
  28 C28           -3.9191     5.9654    -0.8567 C.ar    
  29 C29           -2.7510     5.2304    -0.8477 C.ar    
  30 H30            2.1305    -0.3412     3.3940 H       
  31 H31            3.7852     0.1304     1.6591 H       
  32 H32            4.4339     1.4491    -0.3459 H       
  33 H33           -0.8364     3.9133     0.5485 H       
  34 H34            0.5209     6.0432    -2.9109 H       
  35 H35            2.5978     4.7796    -2.9224 H       
  36 H36           -1.8198     1.3271     0.6412 H       
  37 H37           -2.1150     5.5985     3.0882 H       
  38 H38            0.0201     4.3779     3.0060 H       
  39 H39           -0.5977     7.6597    -1.8271 H       
  40 H40           -2.6918     8.9507    -1.8474 H       
  41 H41           -4.8135     7.8710    -1.2270 H       
  42 H42           -4.8532     5.4963    -0.5850 H       
  43 H43           -2.7699     4.1880    -0.5660 H       
@<TRIPOS>BOND
   1    1    2 am
   2    1   10 1
   3    1   17 1
   4    2    3 1
   5    2   15 2
   6    3    4 2
   7    3   30 1
   8    4    5 1
   9    4   31 1
  10    5    6 ar
  11    5   10 ar
  12    6    7 ar
  13    6   32 1
  14    7    8 ar
  15    8    9 ar
  16    8   14 ar
  17    9   10 ar
  18    9   11 ar
  19   11   12 ar
  20   11   33 1
  21   12   13 ar
  22   12   16 1
  23   13   14 ar
  24   13   34 1
  25   14   35 1
  26   16   24 ar
  27   16   29 ar
  28   17   18 ar
  29   17   22 ar
  30   18   19 ar
  31   18   36 1
  32   19   20 ar
  33   19   23 1
  34   20   21 ar
  35   20   25 1
  36   21   22 ar
  37   21   37 1
  38   22   38 1
  39   24   26 ar
  40   24   39 1
  41   26   27 ar
  42   26   40 1
  43   27   28 ar
  44   27   41 1
  45   28   29 ar
  46   28   42 1
  47   29   43 1

#	End of record

