#	Name: ASD04590353
#	Creating user name:	WinNT
#	Creation time:	15. 06. 2019 20:50

#	Modifying user name:	WinNT
#	Modification time:	15. 06. 2019 20:50

#	Program:	/corina/corina34_cracker 3.40 0067  02.08.2006

@<TRIPOS>MOLECULE
ASD04590353
  39   42    0    0    0
SMALL
NO_CHARGES


@<TRIPOS>ATOM
   1 C1            -0.0167     1.3834     0.0096 C.ar    
   2 C2             0.0021    -0.0041     0.0020 C.ar    
   3 C3             1.1863    -0.6848    -0.0125 C.ar    
   4 C4             2.3948     0.0191    -0.0202 C.ar    
   5 C5             2.3756     1.4250    -0.0129 C.ar    
   6 C6             1.1624     2.0987     0.0022 C.ar    
   7 N7             3.6952    -0.3636    -0.0343 N.2     
   8 C8             4.4665     0.6967    -0.0361 C.2     
   9 N9             3.6970     1.8290    -0.0232 N.pl3   
  10 C10            5.9438     0.6731    -0.0493 C.2     
  11 C11            6.7565    -0.4840    -0.0624 C.2     
  12 C12            8.0503    -0.0801    -0.0726 C.2     
  13 N13            8.0626     1.2789    -0.0662 N.pl3   
  14 N14            6.7358     1.7273    -0.0567 N.2     
  15 N15            6.3042    -1.8136    -0.0640 N.am    
  16 C16            7.1921    -2.8274    -0.0772 C.2     
  17 C17            6.7175    -4.2226    -0.0789 C.2     
  18 O18            8.3852    -2.5909    -0.0876 O.2     
  19 C19            7.4807    -5.3533    -0.0914 C.2     
  20 O20            6.6654    -6.4125    -0.0884 O.3     
  21 C21            5.3798    -6.0274    -0.0742 C.2     
  22 C22            5.3226    -4.6868    -0.0611 C.2     
  23 C23            4.1904    -6.9528    -0.0670 C.3     
  24 C24            8.9869    -5.4001    -0.1061 C.3     
  25 F25            9.4657    -5.4206     1.2082 F       
  26 F26            9.4111    -6.5534    -0.7750 F       
  27 F27            9.4822    -4.2699    -0.7653 F       
  28 H28           -0.9614     1.9069     0.0169 H       
  29 H29           -0.9290    -0.5513     0.0080 H       
  30 H30            1.1893    -1.7648    -0.0176 H       
  31 H31            1.1417     3.1785     0.0075 H       
  32 H32            4.0192     2.7439    -0.0216 H       
  33 H33            8.9175    -0.7238    -0.0834 H       
  34 H34            8.8532     1.8409    -0.0709 H       
  35 H35            5.3528    -2.0022    -0.0557 H       
  36 H36            4.4334    -4.0740    -0.0481 H       
  37 H37            4.5347    -7.9870    -0.0746 H       
  38 H38            3.5965    -6.7741     0.8294 H       
  39 H39            3.5799    -6.7666    -0.9505 H       
@<TRIPOS>BOND
   1    1    2 ar
   2    1    6 ar
   3    1   28 1
   4    2    3 ar
   5    2   29 1
   6    3    4 ar
   7    3   30 1
   8    4    5 ar
   9    4    7 1
  10    5    6 ar
  11    5    9 1
  12    6   31 1
  13    7    8 2
  14    8    9 1
  15    8   10 1
  16    9   32 1
  17   10   11 1
  18   10   14 2
  19   11   12 2
  20   11   15 1
  21   12   13 1
  22   12   33 1
  23   13   14 1
  24   13   34 1
  25   15   16 am
  26   15   35 1
  27   16   17 1
  28   16   18 2
  29   17   19 2
  30   17   22 1
  31   19   20 1
  32   19   24 1
  33   20   21 1
  34   21   22 2
  35   21   23 1
  36   22   36 1
  37   23   37 1
  38   23   38 1
  39   23   39 1
  40   24   25 1
  41   24   26 1
  42   24   27 1

#	End of record

