#	Name: ASD01150660
#	Creating user name:	WinNT
#	Creation time:	15. 06. 2019 19:04

#	Modifying user name:	WinNT
#	Modification time:	15. 06. 2019 19:04

#	Program:	/corina/corina34_cracker 3.40 0067  02.08.2006

@<TRIPOS>MOLECULE
ASD01150660
  53   55    0    0    0
SMALL
NO_CHARGES


@<TRIPOS>ATOM
   1 C1             0.2383     1.3560     0.9182 C.ar    
   2 C2             0.2566    -0.0251     0.8986 C.ar    
   3 C3             1.9434     0.0175    -0.8089 C.ar    
   4 C4             1.9273     1.4049    -0.7922 C.ar    
   5 C5             1.0740     2.0754     0.0725 C.ar    
   6 N6             1.0546     3.4747     0.0925 N.am    
   7 C7            -0.1216     4.1232     0.0240 C.2     
   8 N8            -0.1739     5.4683     0.0410 N.am    
   9 C9             0.9644     6.1873     0.1274 C.2     
  10 C10            2.2487     5.4854     0.2023 C.2     
  11 N11            2.2595     4.1809     0.1893 N.2     
  12 O12            0.9252     7.4037     0.1425 O.2     
  13 C13           -1.4675     6.1517    -0.0348 C.3     
  14 O14           -1.1535     3.4849    -0.0549 O.2     
  15 C15           -2.0055     6.3644     1.3568 C.ar    
  16 C16            3.5380     6.2595     0.2995 C.3     
  17 C17            4.7150     5.2840     0.3631 C.3     
  18 C18            1.1053    -0.6957     0.0387 C.ar    
  19 N19            2.8028    -0.6625    -1.6790 N.am    
  20 C20            3.3343    -1.8458    -1.3132 C.2     
  21 O21            3.1526    -2.2714    -0.1921 O.2     
  22 C22            4.1543    -2.6399    -2.2970 C.3     
  23 C23           -1.6959     7.5209     2.0480 C.ar    
  24 C24           -2.1890     7.7166     3.3242 C.ar    
  25 C25           -2.9927     6.7548     3.9100 C.ar    
  26 C26           -3.3022     5.5976     3.2177 C.ar    
  27 C27           -2.8131     5.4056     1.9394 C.ar    
  28 Cl28          -3.6120     6.9996     5.5132 Cl      
  29 C29            6.0240     6.0698     0.4618 C.3     
  30 C30            7.2009     5.0943     0.5255 C.3     
  31 H31           -0.4293     1.8772     1.5882 H       
  32 H32           -0.3935    -0.5819     1.5571 H       
  33 H33            2.5775     1.9617    -1.4507 H       
  34 H34           -1.3407     7.1161    -0.5266 H       
  35 H35           -2.1677     5.5419    -0.6057 H       
  36 H36            3.6441     6.9001    -0.5760 H       
  37 H37            3.5261     6.8737     1.1999 H       
  38 H38            4.6089     4.6433     1.2386 H       
  39 H39            4.7269     4.6697    -0.5373 H       
  40 H40            1.1173    -1.7756     0.0258 H       
  41 H41            3.0161    -0.2822    -2.5455 H       
  42 H42            5.0155    -2.0505    -2.6116 H       
  43 H43            4.4971    -3.5605    -1.8248 H       
  44 H44            3.5434    -2.8832    -3.1664 H       
  45 H45           -1.0682     8.2715     1.5907 H       
  46 H46           -1.9467     8.6199     3.8642 H       
  47 H47           -3.9296     4.8464     3.6745 H       
  48 H48           -3.0547     4.5023     1.3989 H       
  49 H49            6.1301     6.7105    -0.4136 H       
  50 H50            6.0120     6.6840     1.3622 H       
  51 H51            7.0949     4.4536     1.4010 H       
  52 H52            7.2129     4.4801    -0.3749 H       
  53 H53            8.1335     5.6541     0.5958 H       
@<TRIPOS>BOND
   1    1    2 ar
   2    1    5 ar
   3    1   31 1
   4    2   18 ar
   5    2   32 1
   6    3    4 ar
   7    3   19 1
   8    3   18 ar
   9    4    5 ar
  10    4   33 1
  11    5    6 1
  12    6    7 am
  13    6   11 1
  14    7    8 am
  15    7   14 2
  16    8    9 am
  17    8   13 1
  18    9   10 1
  19    9   12 2
  20   10   11 2
  21   10   16 1
  22   13   15 1
  23   13   34 1
  24   13   35 1
  25   15   23 ar
  26   15   27 ar
  27   16   17 1
  28   16   36 1
  29   16   37 1
  30   17   29 1
  31   17   38 1
  32   17   39 1
  33   18   40 1
  34   19   20 am
  35   19   41 1
  36   20   21 2
  37   20   22 1
  38   22   42 1
  39   22   43 1
  40   22   44 1
  41   23   24 ar
  42   23   45 1
  43   24   25 ar
  44   24   46 1
  45   25   26 ar
  46   25   28 1
  47   26   27 ar
  48   26   47 1
  49   27   48 1
  50   29   30 1
  51   29   49 1
  52   29   50 1
  53   30   51 1
  54   30   52 1
  55   30   53 1

#	End of record

