#	Name: ASD01150768
#	Creating user name:	WinNT
#	Creation time:	15. 06. 2019 19:05

#	Modifying user name:	WinNT
#	Modification time:	15. 06. 2019 19:05

#	Program:	/corina/corina34_cracker 3.40 0067  02.08.2006

@<TRIPOS>MOLECULE
ASD01150768
  61   65    0    0    0
SMALL
NO_CHARGES


@<TRIPOS>ATOM
   1 C1             0.0404     1.4785     0.4554 C.2     
   2 C2            -0.8247     1.0314    -0.6947 C.3     
   3 N3             3.4358     2.7921    -0.2050 N.ar    
   4 C4             2.4439     1.9670     0.0040 C.ar    
   5 C5             1.1332     2.4288     0.2248 C.ar    
   6 C6             0.8840     3.8136     0.2210 C.ar    
   7 C7             1.9820     4.6798    -0.0081 C.ar    
   8 C8             1.8146     6.0700    -0.0274 C.ar    
   9 C9             2.9066     6.8825    -0.2539 C.ar    
  10 C10            4.1728     6.3263    -0.4636 C.ar    
  11 C11            4.3564     4.9781    -0.4493 C.ar    
  12 C12            3.2666     4.1216    -0.2207 C.ar    
  13 C13            2.7103     0.4838     0.0069 C.3     
  14 N14            2.7465     8.2696    -0.2744 N.3     
  15 C15            4.0260     8.9433    -0.5299 C.3     
  16 C16            3.8416    10.4571    -0.4013 C.3     
  17 C17            2.7870    10.9252    -1.4079 C.3     
  18 C18            1.4782    10.1732    -1.1509 C.3     
  19 C19            1.7311     8.6677    -1.2578 C.3     
  20 C20            2.5575    12.4057    -1.2450 C.ar    
  21 C21            2.1817    13.1707    -2.3334 C.ar    
  22 C22            1.9713    14.5288    -2.1840 C.ar    
  23 C23            2.1361    15.1217    -0.9462 C.ar    
  24 C24            2.5110    14.3565     0.1423 C.ar    
  25 C25            2.7172    12.9977    -0.0061 C.ar    
  26 O26            3.2406    10.6543    -2.7356 O.3     
  27 C27           -0.4748     4.3459     0.4475 C.ar    
  28 C28           -1.1040     4.1606     1.6812 C.ar    
  29 C29           -2.3721     4.6601     1.8870 C.ar    
  30 C30           -3.0232     5.3454     0.8727 C.ar    
  31 C31           -2.4038     5.5323    -0.3536 C.ar    
  32 C32           -1.1338     5.0419    -0.5691 C.ar    
  33 F33           -4.2663     5.8324     1.0799 F       
  34 F34           -2.1323     1.4892    -0.5001 F       
  35 F35           -0.3199     1.5560    -1.8893 F       
  36 F36           -0.8250    -0.3659    -0.7623 F       
  37 O37           -0.1703     1.0561     1.5730 O.2     
  38 H38            0.8383     6.5028     0.1334 H       
  39 H39            5.0170     6.9765    -0.6399 H       
  40 H40            5.3410     4.5660    -0.6138 H       
  41 H41            2.8645     0.1443     1.0311 H       
  42 H42            1.8572    -0.0395    -0.4248 H       
  43 H43            3.6021     0.2737    -0.5836 H       
  44 H44            4.7660     8.6047     0.1953 H       
  45 H45            4.3682     8.7034    -1.5366 H       
  46 H46            3.5127    10.6991     0.6093 H       
  47 H47            4.7879    10.9577    -0.6063 H       
  48 H48            1.1121    10.4107    -0.1520 H       
  49 H49            0.7359    10.4710    -1.8915 H       
  50 H50            2.0840     8.4290    -2.2611 H       
  51 H51            0.8043     8.1288    -1.0612 H       
  52 H52            2.0530    12.7075    -3.3004 H       
  53 H53            1.6784    15.1266    -3.0344 H       
  54 H54            1.9724    16.1828    -0.8296 H       
  55 H55            2.6401    14.8198     1.1093 H       
  56 H56            3.0065    12.3993     0.8451 H       
  57 H57            2.6205    10.9256    -3.4262 H       
  58 H58           -0.5978     3.6266     2.4718 H       
  59 H59           -2.8595     4.5171     2.8401 H       
  60 H60           -2.9159     6.0666    -1.1402 H       
  61 H61           -0.6506     5.1917    -1.5233 H       
@<TRIPOS>BOND
   1    1    2 1
   2    1    5 1
   3    1   37 2
   4    2   34 1
   5    2   35 1
   6    2   36 1
   7    3    4 ar
   8    3   12 ar
   9    4    5 ar
  10    4   13 1
  11    5    6 ar
  12    6    7 ar
  13    6   27 1
  14    7    8 ar
  15    7   12 ar
  16    8    9 ar
  17    8   38 1
  18    9   10 ar
  19    9   14 1
  20   10   11 ar
  21   10   39 1
  22   11   12 ar
  23   11   40 1
  24   13   41 1
  25   13   42 1
  26   13   43 1
  27   14   15 1
  28   14   19 1
  29   15   16 1
  30   15   44 1
  31   15   45 1
  32   16   17 1
  33   16   46 1
  34   16   47 1
  35   17   18 1
  36   17   20 1
  37   17   26 1
  38   18   19 1
  39   18   48 1
  40   18   49 1
  41   19   50 1
  42   19   51 1
  43   20   21 ar
  44   20   25 ar
  45   21   22 ar
  46   21   52 1
  47   22   23 ar
  48   22   53 1
  49   23   24 ar
  50   23   54 1
  51   24   25 ar
  52   24   55 1
  53   25   56 1
  54   26   57 1
  55   27   28 ar
  56   27   32 ar
  57   28   29 ar
  58   28   58 1
  59   29   30 ar
  60   29   59 1
  61   30   31 ar
  62   30   33 1
  63   31   32 ar
  64   31   60 1
  65   32   61 1

#	End of record

