#	Name: ASD03330212
#	Creating user name:	WinNT
#	Creation time:	15. 06. 2019 20:36

#	Modifying user name:	WinNT
#	Modification time:	15. 06. 2019 20:36

#	Program:	/corina/corina34_cracker 3.40 0067  02.08.2006

@<TRIPOS>MOLECULE
ASD03330212
  68   72    0    0    0
SMALL
NO_CHARGES


@<TRIPOS>ATOM
   1 C1            -0.4295     1.2121     0.4391 C.2     
   2 C2            -0.3805    -0.1110     0.1173 C.2     
   3 C3             0.6929     1.9328     0.0872 C.2     
   4 C4             1.6725     1.1893    -0.5304 C.2     
   5 S5             1.1475    -0.4828    -0.6678 S.3     
   6 C6             2.9664     1.7158    -1.0058 C.ar    
   7 C7             3.0079     2.8649    -1.7992 C.ar    
   8 C8             4.2207     3.3516    -2.2396 C.ar    
   9 C9             5.3958     2.7049    -1.8977 C.ar    
  10 C10            5.3636     1.5666    -1.1125 C.ar    
  11 C11            4.1571     1.0704    -0.6596 C.ar    
  12 C12            0.8321     3.3849     0.3519 C.ar    
  13 C13           -0.1214     4.2783    -0.1348 C.ar    
  14 C14            1.9135     3.8596     1.0929 C.ar    
  15 C15            2.0397     5.2110     1.3378 C.ar    
  16 C16            1.0915     6.0983     0.8473 C.ar    
  17 C17            0.0108     5.6285     0.1137 C.ar    
  18 C18           -1.4451    -1.0816     0.3867 C.2     
  19 O19           -2.5235    -0.7017     0.8041 O.2     
  20 N20           -1.2300    -2.3947     0.1723 N.am    
  21 Cl21           4.1182    -0.3579     0.3262 Cl      
  22 O22            1.2186     7.4294     1.0907 O.3     
  23 O23            1.7315    10.1430     0.2953 O.3     
  24 C24           -0.7855    -5.1135     0.8131 C.3     
  25 C25           -0.7100    -5.6203    -0.6041 C.2     
  26 O26            0.2193    -5.2992    -1.3142 O.2     
  27 N27           -1.6752    -6.4303    -1.0824 N.am    
  28 C28           -0.5937    -6.2632     1.7683 C.ar    
  29 C29            0.5278    -7.0651     1.6676 C.ar    
  30 C30            0.7050    -8.1195     2.5433 C.ar    
  31 C31           -0.2413    -8.3724     3.5218 C.ar    
  32 C32           -1.3641    -7.5686     3.6218 C.ar    
  33 C33           -1.5366    -6.5116     2.7484 C.ar    
  34 C34            0.1372    -2.9198     0.0542 C.3     
  35 C35            0.3105    -4.0717     1.0491 C.3     
  36 C36           -2.1511    -4.4756     1.0529 C.3     
  37 C37           -2.3580    -3.3292     0.0581 C.3     
  38 F38           -0.0693    -9.4031     4.3782 F       
  39 C39            0.5177     9.7367     0.9306 C.3     
  40 C40            0.2072     8.2860     0.5566 C.3     
  41 H41           -1.2815     1.6620     0.9270 H       
  42 H42            2.0922     3.3707    -2.0673 H       
  43 H43            4.2538     4.2397    -2.8533 H       
  44 H44            6.3424     3.0908    -2.2460 H       
  45 H45            6.2844     1.0671    -0.8496 H       
  46 H46           -0.9623     3.9135    -0.7059 H       
  47 H47            2.6514     3.1697     1.4751 H       
  48 H48            2.8770     5.5793     1.9120 H       
  49 H49           -0.7252     6.3214    -0.2665 H       
  50 H50            1.9905    11.0545     0.4884 H       
  51 H51           -2.4545    -6.6290    -0.5401 H       
  52 H52           -1.5905    -6.8146    -1.9690 H       
  53 H53            1.2657    -6.8679     0.9039 H       
  54 H54            1.5811    -8.7461     2.4641 H       
  55 H55           -2.1029    -7.7649     4.3847 H       
  56 H56           -2.4124    -5.8844     2.8261 H       
  57 H57            0.3022    -3.2845    -0.9596 H       
  58 H58            0.8529    -2.1298     0.2816 H       
  59 H59            0.2349    -3.6882     2.0666 H       
  60 H60            1.2877    -4.5327     0.9052 H       
  61 H61           -2.9316    -5.2235     0.9129 H       
  62 H62           -2.1974    -4.0868     2.0702 H       
  63 H63           -3.2870    -2.8080     0.2892 H       
  64 H64           -2.4028    -3.7283    -0.9552 H       
  65 H65            0.6290     9.8173     2.0120 H       
  66 H66           -0.2981    10.3797     0.6004 H       
  67 H67            0.1837     8.1876    -0.5287 H       
  68 H68           -0.7621     8.0042     0.9680 H       
@<TRIPOS>BOND
   1    1    2 2
   2    1    3 1
   3    1   41 1
   4    2   18 1
   5    2    5 1
   6    3    4 2
   7    3   12 1
   8    4    5 1
   9    4    6 1
  10    6    7 ar
  11    6   11 ar
  12    7    8 ar
  13    7   42 1
  14    8    9 ar
  15    8   43 1
  16    9   10 ar
  17    9   44 1
  18   10   11 ar
  19   10   45 1
  20   11   21 1
  21   12   13 ar
  22   12   14 ar
  23   13   17 ar
  24   13   46 1
  25   14   15 ar
  26   14   47 1
  27   15   16 ar
  28   15   48 1
  29   16   17 ar
  30   16   22 1
  31   17   49 1
  32   18   19 2
  33   18   20 am
  34   20   34 1
  35   20   37 1
  36   22   40 1
  37   23   39 1
  38   23   50 1
  39   24   25 1
  40   24   28 1
  41   24   36 1
  42   24   35 1
  43   25   26 2
  44   25   27 am
  45   27   51 1
  46   27   52 1
  47   28   29 ar
  48   28   33 ar
  49   29   30 ar
  50   29   53 1
  51   30   31 ar
  52   30   54 1
  53   31   32 ar
  54   31   38 1
  55   32   33 ar
  56   32   55 1
  57   33   56 1
  58   34   35 1
  59   34   57 1
  60   34   58 1
  61   35   59 1
  62   35   60 1
  63   36   37 1
  64   36   61 1
  65   36   62 1
  66   37   63 1
  67   37   64 1
  68   39   40 1
  69   39   65 1
  70   39   66 1
  71   40   67 1
  72   40   68 1

#	End of record

