#	Name: ASD01883975
#	Creating user name:	WinNT
#	Creation time:	15. 06. 2019 19:47

#	Modifying user name:	WinNT
#	Modification time:	15. 06. 2019 19:47

#	Program:	/corina/corina34_cracker 3.40 0067  02.08.2006

@<TRIPOS>MOLECULE
ASD01883975
  53   56    0    0    0
SMALL
NO_CHARGES


@<TRIPOS>ATOM
   1 C1            -0.0479     1.6127    -0.0360 C.3     
   2 C2            -0.0415     0.0828    -0.0292 C.3     
   3 C3             0.6804    -0.4297    -1.2771 C.3     
   4 C4             0.6868    -1.9597    -1.2703 C.3     
   5 N5             1.3780    -2.4504    -2.4652 N.am    
   6 C6             0.7578    -2.7409    -3.7627 C.3     
   7 N7             1.8296    -3.2032    -4.6471 N.pl3   
   8 C8             2.9944    -3.1871    -3.9268 C.2     
   9 N9             3.9731    -3.6013    -4.7100 N.2     
  10 C10            3.4931    -3.8873    -5.9132 C.2     
  11 C11            4.2922    -4.3903    -7.0877 C.3     
  12 C12            2.1337    -3.6437    -5.9022 C.2     
  13 C13            1.1942    -3.8244    -7.0274 C.ar    
  14 C14            0.9542    -2.7736    -7.9151 C.ar    
  15 C15            0.0768    -2.9461    -8.9638 C.ar    
  16 C16           -0.5698    -4.1630    -9.1395 C.ar    
  17 O17           -1.4335    -4.3274   -10.1749 O.3     
  18 C18           -1.9691    -5.6376   -10.3711 C.3     
  19 C19           -3.2805    -5.8133    -9.5658 C.3     
  20 C20           -4.0011    -6.9515   -10.3303 C.3     
  21 C21           -3.6905    -6.6663   -11.8142 C.3     
  22 C22           -2.3985    -5.8309   -11.8401 C.3     
  23 C23           -0.3356    -5.2120    -8.2604 C.ar    
  24 C24            0.5463    -5.0508    -7.2106 C.ar    
  25 F25            0.7785    -6.0731    -6.3585 F       
  26 C26            2.6948    -2.7088    -2.5679 C.2     
  27 O27            3.5099    -2.5708    -1.6756 O.2     
  28 H28            0.9782     1.9804    -0.0389 H       
  29 H29           -0.5643     1.9700    -0.9269 H       
  30 H30           -0.5621     1.9778     0.8530 H       
  31 H31            0.4750    -0.2745     0.8617 H       
  32 H32           -1.0676    -0.2849    -0.0263 H       
  33 H33            0.1639    -0.0725    -2.1680 H       
  34 H34            1.7065    -0.0621    -1.2800 H       
  35 H35            1.2032    -2.3169    -0.3794 H       
  36 H36           -0.3393    -2.3273    -1.2675 H       
  37 H37            0.0047    -3.5207    -3.6499 H       
  38 H38            0.3023    -1.8378    -4.1690 H       
  39 H39            4.3141    -5.4800    -7.0722 H       
  40 H40            3.8303    -4.0493    -8.0142 H       
  41 H41            5.3102    -4.0056    -7.0261 H       
  42 H42            1.4553    -1.8265    -7.7797 H       
  43 H43           -0.1088    -2.1333    -9.6503 H       
  44 H44           -1.2387    -6.3942   -10.0844 H       
  45 H45           -3.0665    -6.1124    -8.5397 H       
  46 H46           -3.8725    -4.8984    -9.5872 H       
  47 H47           -3.6007    -7.9217   -10.0363 H       
  48 H48           -5.0755    -6.9109   -10.1508 H       
  49 H49           -3.5403    -7.6030   -12.3509 H       
  50 H50           -4.5079    -6.1038   -12.2654 H       
  51 H51           -2.5890    -4.8630   -12.3039 H       
  52 H52           -1.6213    -6.3622   -12.3895 H       
  53 H53           -0.8404    -6.1563    -8.4008 H       
@<TRIPOS>BOND
   1    1    2 1
   2    1   28 1
   3    1   29 1
   4    1   30 1
   5    2    3 1
   6    2   31 1
   7    2   32 1
   8    3    4 1
   9    3   33 1
  10    3   34 1
  11    4    5 1
  12    4   35 1
  13    4   36 1
  14    5   26 am
  15    5    6 1
  16    6    7 1
  17    6   37 1
  18    6   38 1
  19    7   12 1
  20    7    8 1
  21    8    9 2
  22    8   26 1
  23    9   10 1
  24   10   11 1
  25   10   12 2
  26   11   39 1
  27   11   40 1
  28   11   41 1
  29   12   13 1
  30   13   24 ar
  31   13   14 ar
  32   14   15 ar
  33   14   42 1
  34   15   16 ar
  35   15   43 1
  36   16   17 1
  37   16   23 ar
  38   17   18 1
  39   18   22 1
  40   18   19 1
  41   18   44 1
  42   19   20 1
  43   19   45 1
  44   19   46 1
  45   20   21 1
  46   20   47 1
  47   20   48 1
  48   21   22 1
  49   21   49 1
  50   21   50 1
  51   22   51 1
  52   22   52 1
  53   23   24 ar
  54   23   53 1
  55   24   25 1
  56   26   27 2

#	End of record

