#	Name: ASD04570011
#	Creating user name:	WinNT
#	Creation time:	15. 06. 2019 20:49

#	Modifying user name:	WinNT
#	Modification time:	15. 06. 2019 20:49

#	Program:	/corina/corina34_cracker 3.40 0067  02.08.2006

@<TRIPOS>MOLECULE
ASD04570011
 282  288    0    0    0
SMALL
NO_CHARGES


@<TRIPOS>ATOM
   1 C1             5.3750     0.1349    -2.9376 C.3     
   2 C2             6.5846     0.9001    -2.3969 C.3     
   3 C3             6.3174     2.3813    -2.4741 C.2     
   4 N4             6.8210     0.5175    -0.9985 N.3     
   5 O5             6.3234     3.0520    -1.4637 O.2     
   6 C6             5.6934    -1.3611    -2.9756 C.3     
   7 C7             4.4445    -2.1378    -3.3973 C.3     
   8 C8             6.8175    -1.6180    -3.9813 C.3     
   9 C9             4.9378     9.4645    -9.4133 C.3     
  10 C10            3.7644     9.5294    -8.4335 C.3     
  11 C11            2.5597    10.1076    -9.1302 C.2     
  12 N12            3.4516     8.1801    -7.9562 N.am    
  13 O13            1.6010     9.4038    -9.3683 O.2     
  14 C14            5.3694    10.8840    -9.7868 C.3     
  15 C15            5.9371    11.5861    -8.5516 C.3     
  16 C16            6.4422    10.8210   -10.8758 C.3     
  17 C17            2.3583     6.0611    -6.1356 C.3     
  18 C18            3.8431     6.2603    -6.4463 C.3     
  19 C19            4.0804     7.6866    -6.8710 C.2     
  20 N20            4.6359     5.9688    -5.2493 N.am    
  21 O21            4.8373     8.3904    -6.2364 O.2     
  22 C22           27.4641   -16.0502    25.5169 C.3     
  23 C23           26.6321   -15.9705    24.2354 C.3     
  24 C24           25.8044   -17.2219    24.0952 C.2     
  25 N25           25.7475   -14.8044    24.2992 N.am    
  26 O26           24.5998   -17.1475    24.0530 O.2     
  27 C27           28.3818   -14.8574    25.5951 C.2     
  28 N28           28.1402   -13.6841    26.2574 N.pl3   
  29 C29           29.2173   -12.8911    26.0710 C.2     
  30 N30           30.0847   -13.5298    25.3343 N.2     
  31 C31           29.5996   -14.7431    25.0316 C.2     
  32 C32            7.1411     5.1552    -3.8133 C.3     
  33 C33            5.8122     4.4003    -3.7411 C.3     
  34 C34            4.9967     4.7001    -4.9724 C.2     
  35 N35            6.0719     2.9605    -3.6661 N.am    
  36 O36            4.6650     3.7997    -5.7142 O.2     
  37 C37           23.1145   -13.4035    23.9757 C.3     
  38 C38           24.3963   -13.0308    23.2281 C.3     
  39 C39           25.3063   -14.2303    23.1625 C.2     
  40 N40           24.0609   -12.5974    21.8695 N.am    
  41 O41           25.6416   -14.6789    22.0867 O.2     
  42 O42           22.5138   -14.5410    23.3535 O.3     
  43 C43           24.5659   -11.0945    19.3227 C.3     
  44 C44           23.3625   -10.8716    20.2409 C.3     
  45 C45           23.7076   -11.3175    21.6384 C.2     
  46 N46           23.0153    -9.4484    20.2540 N.am    
  47 O47           23.6675   -10.5245    22.5552 O.2     
  48 C48           24.1768   -10.7594    17.8814 C.3     
  49 C49           25.3621   -10.9789    16.9771 C.2     
  50 O50           26.4105   -11.3639    17.4380 O.2     
  51 O51           25.2531   -10.7468    15.6595 O.3     
  52 C52           21.1315    -7.1415    20.6138 C.3     
  53 C53           21.8573    -7.4772    19.3095 C.3     
  54 C54           22.2145    -8.9412    19.2959 C.2     
  55 N55           20.9830    -7.1774    18.1729 N.am    
  56 O56           21.7814    -9.6630    18.4228 O.2     
  57 C57           20.8833    -5.6566    20.6826 C.ar    
  58 C58           19.7156    -5.1264    20.1666 C.ar    
  59 C59           19.4879    -3.7644    20.2297 C.ar    
  60 C60           20.4277    -2.9327    20.8093 C.ar    
  61 C61           21.5950    -3.4630    21.3261 C.ar    
  62 C62           21.8207    -4.8255    21.2669 C.ar    
  63 C63           20.4404    -6.4800    15.3059 C.3     
  64 C64           20.0340    -5.6185    16.5032 C.3     
  65 C65           20.9334    -5.9270    17.6724 C.2     
  66 N66           20.1598    -4.2021    16.1507 N.am    
  67 O67           21.6126    -5.0500    18.1629 O.2     
  68 C68           19.4666    -6.2622    14.1766 C.ar    
  69 C69           19.6993    -5.2674    13.2454 C.ar    
  70 C70           18.8060    -5.0676    12.2096 C.ar    
  71 C71           17.6801    -5.8628    12.1048 C.ar    
  72 C72           17.4479    -6.8582    13.0355 C.ar    
  73 C73           18.3434    -7.0608    14.0688 C.ar    
  74 C74           19.4912    -1.2906    16.4275 C.3     
  75 C75           19.2786    -2.1155    15.1566 C.3     
  76 C76           19.1492    -3.5725    15.5191 C.2     
  77 N77           18.0562    -1.6693    14.4836 N.am    
  78 O78           18.1358    -4.1785    15.2426 O.2     
  79 N79           20.2040     2.3936    16.9608 N.pl3   
  80 C80           20.4239     3.3289    17.9442 C.2     
  81 N81           20.6416     4.5732    17.6231 N.2     
  82 N82           20.4143     2.9516    19.2662 N.pl3   
  83 C83           19.7467     0.1701    16.0507 C.3     
  84 C84           19.9593     0.9950    17.3216 C.3     
  85 C85           16.2827    -1.2999    12.0923 C.3     
  86 C86           16.8389    -0.1599    12.9478 C.3     
  87 C87           18.0964    -0.6189    13.6401 C.2     
  88 N88           17.1444     0.9890    12.0917 N.am    
  89 O89           19.1445    -0.0430    13.4383 O.2     
  90 S90           14.7691    -0.7474    11.2590 S.3     
  91 C91           15.3145     4.9964    10.1428 C.3     
  92 C92           16.6205     5.4509    10.8278 C.3     
  93 C93           16.4895     3.0529    10.8960 C.3     
  94 C94           16.1753     1.8711    11.7766 C.2     
  95 N95           15.2683     3.5290    10.2212 N.am    
  96 O96           15.0504     1.7137    12.2018 O.2     
  97 C97           16.9625     4.2534    11.7532 C.3     
  98 C98           12.1343     3.9829     9.9731 C.3     
  99 C99           13.1292     3.3627     8.9901 C.3     
 100 C100          14.2737     2.7484     9.7542 C.2     
 101 N101          12.4563     2.3269     8.2024 N.am    
 102 O102          14.2999     1.5516     9.9490 O.2     
 103 S103          10.8441     4.8647     9.0521 S.3     
 104 C104          12.1089     0.5857     5.7841 C.3     
 105 C105          11.0763     1.5985     6.2831 C.3     
 106 C106          11.7686     2.6640     7.0934 C.2     
 107 N107          10.4046     2.2160     5.1369 N.am    
 108 O108          11.7069     3.8248     6.7475 O.2     
 109 N109          11.7407    -2.6728     3.8836 N.pl3   
 110 C110          12.4683    -3.7086     3.3471 C.2     
 111 N111          11.8587    -4.6860     2.7372 N.2     
 112 N112          13.8390    -3.7135     3.4540 N.pl3   
 113 C113          11.3933    -0.5615     5.0681 C.3     
 114 C114          12.4259    -1.5743     4.5692 C.3     
 115 C115           8.1187     3.6195     3.7933 C.3     
 116 C116           8.6527     2.2433     3.3908 C.3     
 117 C117           9.3437     1.6082     4.5699 C.2     
 118 N118           7.5390     1.3938     2.9617 N.am    
 119 O119           8.9451     0.5500     5.0085 O.2     
 120 C120           7.5366     4.3057     2.5844 C.ar    
 121 C121           6.2010     4.1351     2.2703 C.ar    
 122 C122           5.6650     4.7630     1.1626 C.ar    
 123 C123           6.4682     5.5653     0.3652 C.ar    
 124 C124           7.8080     5.7349     0.6825 C.ar    
 125 C125           8.3378     5.1093     1.7944 C.ar    
 126 O126           5.9434     6.1837    -0.7252 O.3     
 127 C127           6.3288    -0.8924     1.4421 C.3     
 128 C128           5.9529     0.5780     1.2478 C.3     
 129 C129           7.0985     1.4519     1.6893 C.2     
 130 N130           5.6659     0.8266    -0.1712 N.3     
 131 O131           7.6241     2.2075     0.8995 O.2     
 132 O132           7.5667    -1.1590     0.7799 O.3     
 133 C133           1.3112    13.4610    -9.9714 C.3     
 134 C134           1.4023    11.9541   -10.2202 C.3     
 135 C135           1.5793    11.6982   -11.6947 C.2     
 136 N136           2.5475    11.4067    -9.4887 N.am    
 137 O137           2.5607    11.1184   -12.0934 O.2     
 138 C138           1.0118    13.7126    -8.5160 C.2     
 139 C139          -0.1997    13.9095    -7.9724 C.2     
 140 N140          -0.0794    14.1055    -6.6236 N.pl3   
 141 C141           1.2461    14.0379    -6.2571 C.ar    
 142 C142           1.9871    13.7826    -7.4253 C.ar    
 143 C143           1.9114    14.1629    -5.0417 C.ar    
 144 C144           3.2828    14.0420    -4.9968 C.ar    
 145 C145           4.0102    13.7962    -6.1535 C.ar    
 146 C146           3.3759    13.6559    -7.3555 C.ar    
 147 H147           4.5163     0.3072    -2.2887 H       
 148 H148           5.1452     0.4831    -3.9445 H       
 149 H149           7.4641     0.6580    -2.9935 H       
 150 H150           7.0659    -0.4587    -0.9271 H       
 151 H151           6.0092    -1.6907    -1.9857 H       
 152 H152           4.1287    -1.8083    -4.3871 H       
 153 H153           4.6713    -3.2036    -3.4243 H       
 154 H154           3.6437    -1.9548    -2.6808 H       
 155 H155           6.5017    -1.2884    -4.9711 H       
 156 H156           7.7072    -1.0646    -3.6808 H       
 157 H157           7.0443    -2.6838    -4.0083 H       
 158 H158           5.7726     8.9419    -8.9462 H       
 159 H159           4.6314     8.9295   -10.3122 H       
 160 H160           4.0325    10.1613    -7.5868 H       
 161 H161           2.7920     7.6419    -8.4211 H       
 162 H162           4.5081    11.4401   -10.1570 H       
 163 H163           6.1647    12.6237    -8.7959 H       
 164 H164           5.2031    11.5549    -7.7464 H       
 165 H165           6.8482    11.0798    -8.2325 H       
 166 H166           6.0377    10.3208   -11.7558 H       
 167 H167           6.7497    11.8323   -11.1419 H       
 168 H168           7.3035    10.2649   -10.5056 H       
 169 H169           1.7684     6.2779    -7.0262 H       
 170 H170           2.1866     5.0294    -5.8284 H       
 171 H171           2.0620     6.7339    -5.3308 H       
 172 H172           4.1393     5.5875    -7.2510 H       
 173 H173           4.9011     6.6890    -4.6560 H       
 174 H174          26.8002   -16.0551    26.3814 H       
 175 H175          28.0570   -16.9648    25.5089 H       
 176 H176          27.2963   -15.8760    23.3763 H       
 177 H177          26.2884   -18.1853    24.0325 H       
 178 H178          25.4794   -14.4456    25.1596 H       
 179 H179          27.3441   -13.4634    26.7657 H       
 180 H180          29.3404   -11.8934    26.4660 H       
 181 H181          30.0973   -15.4955    24.4379 H       
 182 H182           7.6912     4.8385    -4.6994 H       
 183 H183           6.9479     6.2264    -3.8692 H       
 184 H184           7.7309     4.9383    -2.9227 H       
 185 H185           5.2621     4.7170    -2.8550 H       
 186 H186           6.0671     2.4240    -4.4742 H       
 187 H187          23.3542   -13.6406    25.0122 H       
 188 H188          22.4197   -12.5641    23.9464 H       
 189 H189          24.9010   -12.2203    23.7539 H       
 190 H190          24.0930   -13.2316    21.1363 H       
 191 H191          21.6947   -14.8337    23.7760 H       
 192 H192          25.3868   -10.4497    19.6366 H       
 193 H193          24.8797   -12.1367    19.3814 H       
 194 H194          22.5140   -11.4493    19.8743 H       
 195 H195          23.3617    -8.8711    20.9524 H       
 196 H196          23.3559   -11.4042    17.5675 H       
 197 H197          23.8630    -9.7172    17.8227 H       
 198 H198          26.0404   -10.9019    15.1198 H       
 199 H199          20.1793    -7.6709    20.6464 H       
 200 H200          21.7461    -7.4467    21.4606 H       
 201 H201          22.7666    -6.8807    19.2357 H       
 202 H202          20.4398    -7.8787    17.7805 H       
 203 H203          18.9814    -5.7762    19.7138 H       
 204 H204          18.5760    -3.3501    19.8258 H       
 205 H205          20.2501    -1.8685    20.8579 H       
 206 H206          22.3293    -2.8131    21.7786 H       
 207 H207          22.7309    -5.2403    21.6741 H       
 208 H208          21.4425    -6.2004    14.9805 H       
 209 H209          20.4323    -7.5309    15.5950 H       
 210 H210          19.0004    -5.8354    16.7727 H       
 211 H211          20.9704    -3.7174    16.3719 H       
 212 H212          20.5789    -4.6461    13.3273 H       
 213 H213          18.9874    -4.2899    11.4825 H       
 214 H214          16.9818    -5.7062    11.2959 H       
 215 H215          16.5681    -7.4792    12.9538 H       
 216 H216          18.1639    -7.8409    14.7938 H       
 217 H217          18.6020    -1.3538    17.0547 H       
 218 H218          20.3499    -1.6803    16.9742 H       
 219 H219          20.1302    -1.9813    14.4896 H       
 220 H220          17.2180    -2.1299    14.6450 H       
 221 H221          20.2108     2.6598    16.0280 H       
 222 H222          20.7968     5.2331    18.3170 H       
 223 H223          20.2523     2.0255    19.5051 H       
 224 H224          20.5695     3.6114    19.9600 H       
 225 H225          20.6360     0.2333    15.4235 H       
 226 H226          18.8881     0.5598    15.5039 H       
 227 H227          20.8180     0.6052    17.8683 H       
 228 H228          19.0701     0.9317    17.9488 H       
 229 H229          17.0231    -1.5892    11.3465 H       
 230 H230          16.0554    -2.1547    12.7292 H       
 231 H231          16.0985     0.1293    13.6936 H       
 232 H232          18.0440     1.1148    11.7516 H       
 233 H233          14.3979    -1.8321    10.5555 H       
 234 H234          14.4560     5.4226    10.6618 H       
 235 H235          15.3138     5.3121     9.0995 H       
 236 H236          17.4086     5.6063    10.0910 H       
 237 H237          16.4545     6.3554    11.4130 H       
 238 H238          17.2494     2.7864    10.1614 H       
 239 H239          18.0346     4.1998    11.9427 H       
 240 H240          16.4045     4.3101    12.6878 H       
 241 H241          11.6784     3.1958    10.5738 H       
 242 H242          12.6566     4.6819    10.6263 H       
 243 H243          13.5110     4.1357     8.3232 H       
 244 H244          12.5056     1.3985     8.4790 H       
 245 H245          10.0545     5.3500    10.0268 H       
 246 H246          12.7932     1.0757     5.0915 H       
 247 H247          12.6700     0.1915     6.6314 H       
 248 H248          10.3398     1.0901     6.9052 H       
 249 H249          10.7234     3.0623     4.7861 H       
 250 H250          10.7736    -2.6694     3.8082 H       
 251 H251          12.3721    -5.4168     2.3586 H       
 252 H252          14.2927    -2.9862     3.9080 H       
 253 H253          14.3524    -4.4443     3.0755 H       
 254 H254          10.7090    -1.0515     5.7607 H       
 255 H255          10.8322    -0.1673     4.2209 H       
 256 H256          12.9869    -1.9686     5.4165 H       
 257 H257          13.1102    -1.0844     3.8766 H       
 258 H258           7.3448     3.5014     4.5517 H       
 259 H259           8.9331     4.2217     4.1959 H       
 260 H260           9.3619     2.3545     2.5706 H       
 261 H261           7.1186     0.7895     3.5933 H       
 262 H262           5.5763     3.5101     2.8912 H       
 263 H263           4.6218     4.6291     0.9175 H       
 264 H264           8.4353     6.3590     0.0633 H       
 265 H265           9.3798     5.2445     2.0444 H       
 266 H266           5.5849     7.0633    -0.5440 H       
 267 H267           6.4332    -1.1031     2.5064 H       
 268 H268           5.5478    -1.5257     1.0212 H       
 269 H269           5.0695     0.8088     1.8431 H       
 270 H270           5.3606     1.7772    -0.3172 H       
 271 H271           7.8671    -2.0746     0.8614 H       
 272 H272           2.2592    13.9305   -10.2338 H       
 273 H273           0.5148    13.8829   -10.5844 H       
 274 H274           0.4871    11.4729    -9.8752 H       
 275 H275           0.8283    12.0333   -12.3949 H       
 276 H276           3.2970    11.9793    -9.2623 H       
 277 H277          -1.1312    13.9132    -8.5188 H       
 278 H278          -0.8179    14.2682    -6.0161 H       
 279 H279           1.3545    14.3544    -4.1364 H       
 280 H280           3.7975    14.1397    -4.0523 H       
 281 H281           5.0850    13.7045    -6.1011 H       
 282 H282           3.9481    13.4627    -8.2509 H       
@<TRIPOS>BOND
   1    1    6 1
   2    1    2 1
   3    1  147 1
   4    1  148 1
   5    2    4 1
   6    2    3 1
   7    2  149 1
   8    3    5 2
   9    3   35 am
  10    4  130 1
  11    4  150 1
  12    6    7 1
  13    6    8 1
  14    6  151 1
  15    7  152 1
  16    7  153 1
  17    7  154 1
  18    8  155 1
  19    8  156 1
  20    8  157 1
  21    9   14 1
  22    9   10 1
  23    9  158 1
  24    9  159 1
  25   10   12 1
  26   10   11 1
  27   10  160 1
  28   11   13 2
  29   11  136 am
  30   12   19 am
  31   12  161 1
  32   14   15 1
  33   14   16 1
  34   14  162 1
  35   15  163 1
  36   15  164 1
  37   15  165 1
  38   16  166 1
  39   16  167 1
  40   16  168 1
  41   17   18 1
  42   17  169 1
  43   17  170 1
  44   17  171 1
  45   18   19 1
  46   18   20 1
  47   18  172 1
  48   19   21 2
  49   20   34 am
  50   20  173 1
  51   22   27 1
  52   22   23 1
  53   22  174 1
  54   22  175 1
  55   23   24 1
  56   23   25 1
  57   23  176 1
  58   24   26 2
  59   24  177 1
  60   25   39 am
  61   25  178 1
  62   27   28 1
  63   27   31 2
  64   28   29 1
  65   28  179 1
  66   29   30 2
  67   29  180 1
  68   30   31 1
  69   31  181 1
  70   32   33 1
  71   32  182 1
  72   32  183 1
  73   32  184 1
  74   33   34 1
  75   33   35 1
  76   33  185 1
  77   34   36 2
  78   35  186 1
  79   37   42 1
  80   37   38 1
  81   37  187 1
  82   37  188 1
  83   38   40 1
  84   38   39 1
  85   38  189 1
  86   39   41 2
  87   40   45 am
  88   40  190 1
  89   42  191 1
  90   43   48 1
  91   43   44 1
  92   43  192 1
  93   43  193 1
  94   44   46 1
  95   44   45 1
  96   44  194 1
  97   45   47 2
  98   46   54 am
  99   46  195 1
 100   48   49 1
 101   48  196 1
 102   48  197 1
 103   49   50 2
 104   49   51 1
 105   51  198 1
 106   52   57 1
 107   52   53 1
 108   52  199 1
 109   52  200 1
 110   53   54 1
 111   53   55 1
 112   53  201 1
 113   54   56 2
 114   55   65 am
 115   55  202 1
 116   57   58 ar
 117   57   62 ar
 118   58   59 ar
 119   58  203 1
 120   59   60 ar
 121   59  204 1
 122   60   61 ar
 123   60  205 1
 124   61   62 ar
 125   61  206 1
 126   62  207 1
 127   63   68 1
 128   63   64 1
 129   63  208 1
 130   63  209 1
 131   64   65 1
 132   64   66 1
 133   64  210 1
 134   65   67 2
 135   66   76 am
 136   66  211 1
 137   68   69 ar
 138   68   73 ar
 139   69   70 ar
 140   69  212 1
 141   70   71 ar
 142   70  213 1
 143   71   72 ar
 144   71  214 1
 145   72   73 ar
 146   72  215 1
 147   73  216 1
 148   74   83 1
 149   74   75 1
 150   74  217 1
 151   74  218 1
 152   75   77 1
 153   75   76 1
 154   75  219 1
 155   76   78 2
 156   77   87 am
 157   77  220 1
 158   79   84 1
 159   79   80 1
 160   79  221 1
 161   80   81 2
 162   80   82 1
 163   81  222 1
 164   82  223 1
 165   82  224 1
 166   83   84 1
 167   83  225 1
 168   83  226 1
 169   84  227 1
 170   84  228 1
 171   85   90 1
 172   85   86 1
 173   85  229 1
 174   85  230 1
 175   86   87 1
 176   86   88 1
 177   86  231 1
 178   87   89 2
 179   88   94 am
 180   88  232 1
 181   90  233 1
 182   91   95 1
 183   91   92 1
 184   91  234 1
 185   91  235 1
 186   92   97 1
 187   92  236 1
 188   92  237 1
 189   93   95 1
 190   93   94 1
 191   93   97 1
 192   93  238 1
 193   94   96 2
 194   95  100 am
 195   97  239 1
 196   97  240 1
 197   98  103 1
 198   98   99 1
 199   98  241 1
 200   98  242 1
 201   99  100 1
 202   99  101 1
 203   99  243 1
 204  100  102 2
 205  101  106 am
 206  101  244 1
 207  103  245 1
 208  104  113 1
 209  104  105 1
 210  104  246 1
 211  104  247 1
 212  105  107 1
 213  105  106 1
 214  105  248 1
 215  106  108 2
 216  107  117 am
 217  107  249 1
 218  109  114 1
 219  109  110 1
 220  109  250 1
 221  110  111 2
 222  110  112 1
 223  111  251 1
 224  112  252 1
 225  112  253 1
 226  113  114 1
 227  113  254 1
 228  113  255 1
 229  114  256 1
 230  114  257 1
 231  115  120 1
 232  115  116 1
 233  115  258 1
 234  115  259 1
 235  116  117 1
 236  116  118 1
 237  116  260 1
 238  117  119 2
 239  118  129 am
 240  118  261 1
 241  120  121 ar
 242  120  125 ar
 243  121  122 ar
 244  121  262 1
 245  122  123 ar
 246  122  263 1
 247  123  124 ar
 248  123  126 1
 249  124  125 ar
 250  124  264 1
 251  125  265 1
 252  126  266 1
 253  127  132 1
 254  127  128 1
 255  127  267 1
 256  127  268 1
 257  128  130 1
 258  128  129 1
 259  128  269 1
 260  129  131 2
 261  130  270 1
 262  132  271 1
 263  133  138 1
 264  133  134 1
 265  133  272 1
 266  133  273 1
 267  134  135 1
 268  134  136 1
 269  134  274 1
 270  135  137 2
 271  135  275 1
 272  136  276 1
 273  138  139 2
 274  138  142 1
 275  139  140 1
 276  139  277 1
 277  140  141 1
 278  140  278 1
 279  141  142 ar
 280  141  143 ar
 281  142  146 ar
 282  143  144 ar
 283  143  279 1
 284  144  145 ar
 285  144  280 1
 286  145  146 ar
 287  145  281 1
 288  146  282 1

#	End of record

