#	Name: ASD00731063
#	Creating user name:	WinNT
#	Creation time:	15. 06. 2019 18:37

#	Modifying user name:	WinNT
#	Modification time:	15. 06. 2019 18:37

#	Program:	/corina/corina34_cracker 3.40 0067  02.08.2006

@<TRIPOS>MOLECULE
ASD00731063
 219  218    0    0    0
SMALL
NO_CHARGES


@<TRIPOS>ATOM
   1 C1            -0.4944     1.6452     1.2305 C.2     
   2 O2            -0.6502     0.4915     1.5704 O.2     
   3 N3             1.8409     1.2838     1.7826 N.am    
   4 C4             0.8763     2.2689     1.2873 C.3     
   5 C5            -3.7107     2.4768    -0.2949 C.2     
   6 O6            -3.2387     3.4045    -0.9175 O.2     
   7 N7            -1.5461     2.3679     0.7969 N.am    
   8 C8            -2.8775     1.7597     0.7360 C.3     
   9 C9            -3.5523     1.8715     2.1046 C.3     
  10 O10           -3.7793     3.2483     2.4128 O.3     
  11 C11           -7.2343     2.8850    -0.9395 C.2     
  12 O12           -7.5274     2.2845     0.0726 O.2     
  13 N13           -4.9802     2.0872    -0.5250 N.am    
  14 C14           -5.8202     2.8417    -1.4586 C.3     
  15 C15           -5.8002     2.1597    -2.8280 C.3     
  16 C16           -6.1426     0.6774    -2.6646 C.3     
  17 C17           -7.6041     0.5360    -2.2348 C.3     
  18 C18           -4.4070     2.2962    -3.4455 C.3     
  19 C19          -10.4848     3.8922    -2.2748 C.2     
  20 O20          -10.0318     4.0868    -3.3829 O.2     
  21 N21           -8.1732     3.5910    -1.6001 N.am    
  22 C22           -9.5589     3.5916    -1.1244 C.3     
  23 C23           -9.7261     4.6604    -0.0424 C.3     
  24 C24           -8.8798     4.2886     1.1768 C.3     
  25 C25           -9.0471     5.3573     2.2588 C.3     
  26 N26           -8.2367     5.0014     3.4262 N.pl3   
  27 C27           -8.2274     5.8188     4.5316 C.2     
  28 N28           -7.5063     5.5021     5.5703 N.2     
  29 N29           -8.9786     6.9702     4.5415 N.pl3   
  30 C30          -13.9956     4.8339    -2.6629 C.2     
  31 O31          -14.1411     4.9989    -1.4702 O.2     
  32 N32          -11.8162     3.9448    -2.0722 N.am    
  33 C33          -12.7163     4.2371    -3.1905 C.3     
  34 C34          -13.0300     2.9431    -3.9442 C.3     
  35 C35          -17.3377     5.5059    -3.9826 C.2     
  36 O36          -17.1162     4.8969    -5.0078 O.2     
  37 N37          -14.9780     5.1843    -3.5165 N.am    
  38 C38          -16.2216     5.7645    -3.0037 C.3     
  39 C39          -16.0431     7.2730    -2.8206 C.3     
  40 C40          -14.9967     7.5347    -1.7355 C.3     
  41 C41          -14.8182     9.0432    -1.5524 C.3     
  42 N42          -13.8162     9.2939    -0.5134 N.pl3   
  43 C43          -13.4866    10.5846    -0.1733 C.2     
  44 N44          -14.0656    11.5852    -0.7753 N.2     
  45 N45          -12.5463    10.8198     0.8017 N.pl3   
  46 C46          -20.7358     6.7491    -4.5027 C.2     
  47 O47          -20.6040     7.6210    -3.6700 O.2     
  48 N48          -18.5821     5.9514    -3.7189 N.am    
  49 C49          -19.6671     5.7000    -4.6706 C.3     
  50 C50          -20.2651     4.3163    -4.4084 C.3     
  51 C51          -19.1802     3.2511    -4.5789 C.3     
  52 C52          -20.8150     4.2604    -2.9817 C.3     
  53 C53          -24.1976     7.1909    -5.5906 C.2     
  54 O54          -24.2646     6.0600    -6.0237 O.2     
  55 N55          -21.8379     6.7186    -5.2778 N.am    
  56 C56          -22.8768     7.7385    -5.1145 C.3     
  57 C57          -22.5110     8.9754    -5.9375 C.3     
  58 C58          -27.4840     8.5643    -6.4134 C.2     
  59 O59          -27.0886     9.7078    -6.3309 O.2     
  60 N60          -25.3045     7.9579    -5.5352 N.am    
  61 C61          -26.5885     7.4256    -5.9980 C.3     
  62 C62          -27.2534     6.6409    -4.8653 C.3     
  63 C63          -26.4042     5.4136    -4.5281 C.3     
  64 C64          -27.0691     4.6290    -3.3954 C.3     
  65 N65          -26.2561     3.4538    -3.0726 N.pl3   
  66 C66          -26.6570     2.5924    -2.0789 C.2     
  67 N67          -25.9337     1.5469    -1.7917 N.2     
  68 N68          -27.8210     2.8338    -1.3882 N.pl3   
  69 C69          -31.0356     8.9923    -7.1655 C.2     
  70 O70          -31.3084     7.8739    -6.7839 O.2     
  71 N71          -28.7242     8.3118    -6.8765 N.am    
  72 C72          -29.5948     9.4187    -7.2803 C.3     
  73 C73          -29.2909     9.8041    -8.7294 C.3     
  74 C74          -33.8351     8.7219    -8.6344 C.2     
  75 O75          -33.0412     8.5723    -9.5328 O.2     
  76 N76          -32.0210     9.8538    -7.4868 N.am    
  77 C77          -33.4217     9.4393    -7.3752 C.3     
  78 C78          -34.3046    10.6732    -7.1779 C.3     
  79 C79          -33.9692    11.3313    -5.8380 C.3     
  80 S80          -35.0160    12.7942    -5.6041 S.3     
  81 C81          -34.4799    13.4257    -3.9902 C.3     
  82 O82          -35.0853     8.2492    -8.7578 O.3     
  83 C83            3.1390     1.6205     1.9175 C.2     
  84 O84            3.5085     2.7390     1.6289 O.2     
  85 C85           20.9245    -2.1621     6.4513 C.3     
  86 C86           19.9171    -1.1333     5.9340 C.3     
  87 C87           18.5255    -1.7665     5.8764 C.3     
  88 C88           17.5181    -0.7377     5.3591 C.3     
  89 C89           16.1264    -1.3709     5.3015 C.3     
  90 C90           15.1190    -0.3421     4.7842 C.3     
  91 C91           13.7274    -0.9753     4.7266 C.3     
  92 C92           12.7200     0.0535     4.2093 C.3     
  93 C93           11.3283    -0.5797     4.1517 C.3     
  94 C94           10.3209     0.4491     3.6344 C.3     
  95 C95            8.9293    -0.1841     3.5768 C.3     
  96 C96            7.9219     0.8447     3.0595 C.3     
  97 C97            6.5303     0.2115     3.0019 C.3     
  98 C98            5.5229     1.2403     2.4846 C.3     
  99 C99            4.1312     0.6071     2.4270 C.3     
 100 H100           1.5454     0.3892     2.0134 H       
 101 H101           1.1692     2.5940     0.2889 H       
 102 H102           0.8572     3.1278     1.9581 H       
 103 H103          -1.4215     3.2906     0.5250 H       
 104 H104          -2.7848     0.7090     0.4613 H       
 105 H105          -4.5048     1.3419     2.0844 H       
 106 H106          -2.9074     1.4306     2.8647 H       
 107 H107          -4.2054     3.3948     3.2684 H       
 108 H108          -5.3378     1.3073    -0.0725 H       
 109 H109          -5.4365     3.8575    -1.5530 H       
 110 H110          -6.5346     2.6325    -3.4801 H       
 111 H111          -5.9916     0.1629    -3.6136 H       
 112 H112          -5.4963     0.2368    -1.9055 H       
 113 H113          -7.9216    -0.4990    -2.3615 H       
 114 H114          -7.7040     0.8210    -1.1874 H       
 115 H115          -8.2280     1.1853    -2.8491 H       
 116 H116          -3.6893     1.7303    -2.8515 H       
 117 H117          -4.4215     1.9085    -4.4641 H       
 118 H118          -4.1177     3.3470    -3.4607 H       
 119 H119          -7.9316     4.0988    -2.3904 H       
 120 H120          -9.8009     2.6133    -0.7092 H       
 121 H121          -9.3996     5.6250    -0.4309 H       
 122 H122         -10.7748     4.7219     0.2484 H       
 123 H123          -9.2063     3.3240     1.5653 H       
 124 H124          -7.8311     4.2270     0.8860 H       
 125 H125          -8.7205     6.3220     1.8703 H       
 126 H126         -10.0958     5.4189     2.5496 H       
 127 H127          -7.7067     4.1890     3.4192 H       
 128 H128          -7.4998     6.0788     6.3502 H       
 129 H129          -9.5151     7.2059     3.7686 H       
 130 H130          -8.9720     7.5469     5.3214 H       
 131 H131         -12.1784     3.7892    -1.1859 H       
 132 H132         -12.2372     4.9447    -3.8672 H       
 133 H133         -13.5091     2.2355    -3.2675 H       
 134 H134         -13.6998     3.1605    -4.7762 H       
 135 H135         -12.1048     2.5114    -4.3258 H       
 136 H136         -14.8616     5.0523    -4.4704 H       
 137 H137         -16.4667     5.3086    -2.0444 H       
 138 H138         -15.7115     7.7162    -3.7596 H       
 139 H139         -16.9930     7.7179    -2.5242 H       
 140 H140         -15.3282     7.0915    -0.7965 H       
 141 H141         -14.0468     7.0898    -2.0319 H       
 142 H142         -14.4866     9.4865    -2.4914 H       
 143 H143         -15.7680     9.4882    -1.2560 H       
 144 H144         -13.3853     8.5492    -0.0655 H       
 145 H145         -13.8331    12.4959    -0.5354 H       
 146 H146         -12.1155    10.0751     1.2497 H       
 147 H147         -12.3138    11.7304     1.0416 H       
 148 H148         -18.7593     6.4384    -2.8990 H       
 149 H149         -19.2754     5.7398    -5.6870 H       
 150 H150         -21.0724     4.1293    -5.1165 H       
 151 H151         -18.3729     3.4382    -3.8708 H       
 152 H152         -19.6062     2.2654    -4.3921 H       
 153 H153         -18.7884     3.2909    -5.5953 H       
 154 H154         -21.5879     5.0193    -2.8602 H       
 155 H155         -21.2410     3.2747    -2.7949 H       
 156 H156         -20.0077     4.4475    -2.2736 H       
 157 H157         -21.9433     6.0212    -5.9438 H       
 158 H158         -22.9550     8.0123    -4.0624 H       
 159 H159         -22.4328     8.7016    -6.9896 H       
 160 H160         -23.2840     9.7342    -5.8160 H       
 161 H161         -21.5557     9.3714    -5.5931 H       
 162 H162         -25.2509     8.8624    -5.1888 H       
 163 H163         -26.4224     6.7649    -6.8489 H       
 164 H164         -27.3387     7.2768    -3.9841 H       
 165 H165         -28.2466     6.3203    -5.1796 H       
 166 H166         -26.3189     4.7777    -5.4093 H       
 167 H167         -25.4110     5.7342    -4.2138 H       
 168 H168         -27.1545     5.2649    -2.5142 H       
 169 H169         -28.0624     4.3084    -3.7097 H       
 170 H170         -25.4349     3.2835    -3.5599 H       
 171 H171         -26.2165     0.9391    -1.0906 H       
 172 H172         -28.3593     3.6119    -1.6019 H       
 173 H173         -28.1038     2.2261    -0.6871 H       
 174 H174         -29.0404     7.3972    -6.9424 H       
 175 H175         -29.4168    10.2763    -6.6314 H       
 176 H176         -29.9386    10.6277    -9.0299 H       
 177 H177         -28.2487    10.1125    -8.8125 H       
 178 H178         -29.4688     8.9466    -9.3784 H       
 179 H179         -31.8028    10.7483    -7.7920 H       
 180 H180         -33.5358     8.7707    -6.5219 H       
 181 H181         -34.1242    11.3820    -7.9861 H       
 182 H182         -35.3528    10.3746    -7.1837 H       
 183 H183         -34.1496    10.6225    -5.0298 H       
 184 H184         -32.9209    11.6299    -5.8321 H       
 185 H185         -35.0513    14.3202    -3.7421 H       
 186 H186         -34.6476    12.6645    -3.2283 H       
 187 H187         -33.4189    13.6719    -4.0306 H       
 188 H188         -35.3038     7.7962    -9.5837 H       
 189 H189          21.9159    -1.7110     6.4924 H       
 190 H190          20.6316    -2.4873     7.4497 H       
 191 H191          20.9436    -3.0211     5.7805 H       
 192 H192          19.8980    -0.2744     6.6048 H       
 193 H193          20.2099    -0.8082     4.9357 H       
 194 H194          18.5446    -2.6254     5.2056 H       
 195 H195          18.2326    -2.0916     6.8748 H       
 196 H196          17.4989     0.1212     6.0299 H       
 197 H197          17.8109    -0.4126     4.3608 H       
 198 H198          16.1455    -2.2298     4.6307 H       
 199 H199          15.8336    -1.6960     6.2999 H       
 200 H200          15.0999     0.5168     5.4550 H       
 201 H201          15.4119    -0.0170     3.7859 H       
 202 H202          13.7465    -1.8342     4.0558 H       
 203 H203          13.4345    -1.3004     5.7250 H       
 204 H204          12.7009     0.9124     4.8801 H       
 205 H205          13.0128     0.3786     3.2110 H       
 206 H206          11.3475    -1.4386     3.4809 H       
 207 H207          11.0355    -0.9048     5.1501 H       
 208 H208          10.3018     1.3080     4.3052 H       
 209 H209          10.6138     0.7742     2.6361 H       
 210 H210           8.9484    -1.0430     2.9060 H       
 211 H211           8.6365    -0.5092     4.5752 H       
 212 H212           7.9028     1.7036     3.7303 H       
 213 H213           8.2148     1.1698     2.0612 H       
 214 H214           6.5494    -0.6474     2.3311 H       
 215 H215           6.2374    -0.1136     4.0003 H       
 216 H216           5.5038     2.0993     3.1554 H       
 217 H217           5.8157     1.5655     1.4863 H       
 218 H218           3.8384     0.2820     3.4254 H       
 219 H219           4.1503    -0.2518     1.7562 H       
@<TRIPOS>BOND
   1    1    2 2
   2    1    4 1
   3    1    7 am
   4    3    4 1
   5    3   83 am
   6    3  100 1
   7    4  101 1
   8    4  102 1
   9    5    6 2
  10    5    8 1
  11    5   13 am
  12    7    8 1
  13    7  103 1
  14    8    9 1
  15    8  104 1
  16    9   10 1
  17    9  105 1
  18    9  106 1
  19   10  107 1
  20   11   12 2
  21   11   14 1
  22   11   21 am
  23   13   14 1
  24   13  108 1
  25   14   15 1
  26   14  109 1
  27   15   16 1
  28   15   18 1
  29   15  110 1
  30   16   17 1
  31   16  111 1
  32   16  112 1
  33   17  113 1
  34   17  114 1
  35   17  115 1
  36   18  116 1
  37   18  117 1
  38   18  118 1
  39   19   20 2
  40   19   22 1
  41   19   32 am
  42   21   22 1
  43   21  119 1
  44   22   23 1
  45   22  120 1
  46   23   24 1
  47   23  121 1
  48   23  122 1
  49   24   25 1
  50   24  123 1
  51   24  124 1
  52   25   26 1
  53   25  125 1
  54   25  126 1
  55   26   27 1
  56   26  127 1
  57   27   28 2
  58   27   29 1
  59   28  128 1
  60   29  129 1
  61   29  130 1
  62   30   31 2
  63   30   33 1
  64   30   37 am
  65   32   33 1
  66   32  131 1
  67   33   34 1
  68   33  132 1
  69   34  133 1
  70   34  134 1
  71   34  135 1
  72   35   36 2
  73   35   38 1
  74   35   48 am
  75   37   38 1
  76   37  136 1
  77   38   39 1
  78   38  137 1
  79   39   40 1
  80   39  138 1
  81   39  139 1
  82   40   41 1
  83   40  140 1
  84   40  141 1
  85   41   42 1
  86   41  142 1
  87   41  143 1
  88   42   43 1
  89   42  144 1
  90   43   44 2
  91   43   45 1
  92   44  145 1
  93   45  146 1
  94   45  147 1
  95   46   47 2
  96   46   49 1
  97   46   55 am
  98   48   49 1
  99   48  148 1
 100   49   50 1
 101   49  149 1
 102   50   51 1
 103   50   52 1
 104   50  150 1
 105   51  151 1
 106   51  152 1
 107   51  153 1
 108   52  154 1
 109   52  155 1
 110   52  156 1
 111   53   54 2
 112   53   56 1
 113   53   60 am
 114   55   56 1
 115   55  157 1
 116   56   57 1
 117   56  158 1
 118   57  159 1
 119   57  160 1
 120   57  161 1
 121   58   59 2
 122   58   61 1
 123   58   71 am
 124   60   61 1
 125   60  162 1
 126   61   62 1
 127   61  163 1
 128   62   63 1
 129   62  164 1
 130   62  165 1
 131   63   64 1
 132   63  166 1
 133   63  167 1
 134   64   65 1
 135   64  168 1
 136   64  169 1
 137   65   66 1
 138   65  170 1
 139   66   67 2
 140   66   68 1
 141   67  171 1
 142   68  172 1
 143   68  173 1
 144   69   70 2
 145   69   72 1
 146   69   76 am
 147   71   72 1
 148   71  174 1
 149   72   73 1
 150   72  175 1
 151   73  176 1
 152   73  177 1
 153   73  178 1
 154   74   75 2
 155   74   77 1
 156   74   82 1
 157   76   77 1
 158   76  179 1
 159   77   78 1
 160   77  180 1
 161   78   79 1
 162   78  181 1
 163   78  182 1
 164   79   80 1
 165   79  183 1
 166   79  184 1
 167   80   81 1
 168   81  185 1
 169   81  186 1
 170   81  187 1
 171   82  188 1
 172   83   84 2
 173   83   99 1
 174   85   86 1
 175   85  189 1
 176   85  190 1
 177   85  191 1
 178   86   87 1
 179   86  192 1
 180   86  193 1
 181   87   88 1
 182   87  194 1
 183   87  195 1
 184   88   89 1
 185   88  196 1
 186   88  197 1
 187   89   90 1
 188   89  198 1
 189   89  199 1
 190   90   91 1
 191   90  200 1
 192   90  201 1
 193   91   92 1
 194   91  202 1
 195   91  203 1
 196   92   93 1
 197   92  204 1
 198   92  205 1
 199   93   94 1
 200   93  206 1
 201   93  207 1
 202   94   95 1
 203   94  208 1
 204   94  209 1
 205   95   96 1
 206   95  210 1
 207   95  211 1
 208   96   97 1
 209   96  212 1
 210   96  213 1
 211   97   98 1
 212   97  214 1
 213   97  215 1
 214   98   99 1
 215   98  216 1
 216   98  217 1
 217   99  218 1
 218   99  219 1

#	End of record

