#	Name: ASD01813241
#	Creating user name:	WinNT
#	Creation time:	15. 06. 2019 19:30

#	Modifying user name:	WinNT
#	Modification time:	15. 06. 2019 19:30

#	Program:	/corina/corina34_cracker 3.40 0067  02.08.2006

@<TRIPOS>MOLECULE
ASD01813241
  46   48    0    0    0
SMALL
NO_CHARGES


@<TRIPOS>ATOM
   1 C1            -0.3072     1.1222    -0.1622 C.3     
   2 C2             2.7506    -2.0428     0.7846 C.3     
   3 C3             2.7190    -0.6878     0.0747 C.3     
   4 C4             2.1080    -0.8515    -1.2931 C.2     
   5 C5             0.7747    -0.7091    -1.4371 C.2     
   6 C6            -0.0896    -0.3901    -0.2445 C.3     
   7 N7             2.9147    -1.1325    -2.3462 N.pl3   
   8 C8             2.4413    -1.2914    -3.5930 C.2     
   9 C9             1.0894    -1.1719    -3.8468 C.2     
  10 C10            0.1947    -0.8618    -2.7206 C.2     
  11 O11           -1.0091    -0.7446    -2.8860 O.2     
  12 C12            4.3552    -1.2673    -2.1156 C.3     
  13 C13            5.0386     0.0384    -2.4305 C.ar    
  14 C14            5.3161     0.9338    -1.3997 C.ar    
  15 C15            5.9319     2.1218    -1.6500 C.ar    
  16 C16            6.2947     2.4529    -2.9663 C.ar    
  17 C17            6.0129     1.5417    -4.0149 C.ar    
  18 C18            5.3806     0.3229    -3.7170 C.ar    
  19 C19            6.9313     3.6701    -3.2638 C.ar    
  20 C20            7.2678     3.9570    -4.5509 C.ar    
  21 C21            6.9907     3.0610    -5.5820 C.ar    
  22 C22            6.3756     1.8732    -5.3317 C.ar    
  23 C23            0.5583    -1.3437    -5.2082 C.2     
  24 O24            1.3127    -1.5943    -6.1277 O.2     
  25 O25           -0.7647    -1.2231    -5.4357 O.3     
  26 H26            0.6555     1.6226    -0.0575 H       
  27 H27           -0.7997     1.4684    -1.0709 H       
  28 H28           -0.9323     1.3529     0.7003 H       
  29 H29            3.2720    -1.9422     1.7365 H       
  30 H30            1.7307    -2.3833     0.9632 H       
  31 H31            3.2717    -2.7682     0.1598 H       
  32 H32            2.1223     0.0139     0.6575 H       
  33 H33            3.7350    -0.3058    -0.0245 H       
  34 H34            0.4029    -0.7363     0.6642 H       
  35 H35           -1.0523    -0.8905    -0.3492 H       
  36 H36            3.1219    -1.5139    -4.4016 H       
  37 H37            4.5333    -1.5283    -1.0724 H       
  38 H38            4.7544    -2.0509    -2.7595 H       
  39 H39            5.0382     0.6817    -0.3870 H       
  40 H40            6.1400     2.8063    -0.8410 H       
  41 H41            5.1596    -0.3810    -4.5058 H       
  42 H42            7.1520     4.3742    -2.4752 H       
  43 H43            7.7566     4.8932    -4.7768 H       
  44 H44            7.2684     3.3132    -6.5947 H       
  45 H45            6.1675     1.1886    -6.1407 H       
  46 H46           -1.0664    -1.3445    -6.3464 H       
@<TRIPOS>BOND
   1    1    6 1
   2    1   26 1
   3    1   27 1
   4    1   28 1
   5    2    3 1
   6    2   29 1
   7    2   30 1
   8    2   31 1
   9    3    4 1
  10    3   32 1
  11    3   33 1
  12    4    5 2
  13    4    7 1
  14    5    6 1
  15    5   10 1
  16    6   34 1
  17    6   35 1
  18    7    8 1
  19    7   12 1
  20    8    9 2
  21    8   36 1
  22    9   10 1
  23    9   23 1
  24   10   11 2
  25   12   13 1
  26   12   37 1
  27   12   38 1
  28   13   14 ar
  29   13   18 ar
  30   14   15 ar
  31   14   39 1
  32   15   16 ar
  33   15   40 1
  34   16   17 ar
  35   16   19 ar
  36   17   18 ar
  37   17   22 ar
  38   18   41 1
  39   19   20 ar
  40   19   42 1
  41   20   21 ar
  42   20   43 1
  43   21   22 ar
  44   21   44 1
  45   22   45 1
  46   23   24 2
  47   23   25 1
  48   25   46 1

#	End of record

