#	Name: ASD04598002
#	Creating user name:	WinNT
#	Creation time:	15. 06. 2019 20:52

#	Modifying user name:	WinNT
#	Modification time:	15. 06. 2019 20:52

#	Program:	/corina/corina34_cracker 3.40 0067  02.08.2006

@<TRIPOS>MOLECULE
ASD04598002
  33   35    0    0    0
SMALL
NO_CHARGES


@<TRIPOS>ATOM
   1 C1            -0.0169     1.3934     0.0097 C.ar    
   2 C2             0.0021    -0.0041     0.0020 C.ar    
   3 C3             1.2142    -0.6928    -0.0133 C.ar    
   4 C4             2.4075    -0.0422    -0.0207 C.ar    
   5 C5             2.4623     1.3632    -0.0132 C.ar    
   6 C6             3.6912     2.0444    -0.0198 C.ar    
   7 C7             3.7067     3.4063    -0.0118 C.ar    
   8 C8             2.5213     4.1367     0.0029 C.ar    
   9 C9             1.3115     3.5075     0.0097 C.ar    
  10 C10            1.2589     2.1092     0.0014 C.ar    
  11 O11           -1.1656    -0.6943     0.0099 O.3     
  12 C12           -1.2863     2.1252     0.0197 C.2     
  13 N13           -2.4169     1.4715     0.0216 N.2     
  14 C14           -3.6019     2.1546     0.0310 C.ar    
  15 C15           -4.6400     1.7687    -0.8210 C.ar    
  16 C16           -5.8323     2.4602    -0.8081 C.ar    
  17 C17           -6.0026     3.5391     0.0496 C.ar    
  18 C18           -4.9737     3.9262     0.8981 C.ar    
  19 C19           -3.7800     3.2369     0.8966 C.ar    
  20 O20           -7.1796     4.2184     0.0582 O.3     
  21 H21            1.2048    -1.7727    -0.0190 H       
  22 H22            3.3251    -0.6115    -0.0322 H       
  23 H23            4.6186     1.4911    -0.0308 H       
  24 H24            4.6526     3.9275    -0.0166 H       
  25 H25            2.5606     5.2160     0.0093 H       
  26 H26            0.3991     4.0852     0.0215 H       
  27 H27           -1.5129    -0.8897    -0.8711 H       
  28 H28           -1.2870     3.2052     0.0256 H       
  29 H29           -4.5082     0.9302    -1.4888 H       
  30 H30           -6.6353     2.1626    -1.4662 H       
  31 H31           -5.1105     4.7659     1.5634 H       
  32 H32           -2.9819     3.5359     1.5599 H       
  33 H33           -7.8297     3.8707     0.6839 H       
@<TRIPOS>BOND
   1    1    2 ar
   2    1   10 ar
   3    1   12 1
   4    2    3 ar
   5    2   11 1
   6    3    4 ar
   7    3   21 1
   8    4    5 ar
   9    4   22 1
  10    5    6 ar
  11    5   10 ar
  12    6    7 ar
  13    6   23 1
  14    7    8 ar
  15    7   24 1
  16    8    9 ar
  17    8   25 1
  18    9   10 ar
  19    9   26 1
  20   11   27 1
  21   12   13 2
  22   12   28 1
  23   13   14 1
  24   14   15 ar
  25   14   19 ar
  26   15   16 ar
  27   15   29 1
  28   16   17 ar
  29   16   30 1
  30   17   18 ar
  31   17   20 1
  32   18   19 ar
  33   18   31 1
  34   19   32 1
  35   20   33 1

#	End of record

