#	Name: ASD02500188
#	Creating user name:	WinNT
#	Creation time:	15. 06. 2019 20:22

#	Modifying user name:	WinNT
#	Modification time:	15. 06. 2019 20:22

#	Program:	/corina/corina34_cracker 3.40 0067  02.08.2006

@<TRIPOS>MOLECULE
ASD02500188
  62   66    0    0    0
SMALL
NO_CHARGES


@<TRIPOS>ATOM
   1 N1            -4.0487     5.4294     1.2224 N.ar    
   2 C2            -5.2161     6.0231     1.2755 C.ar    
   3 C3            -6.1370     5.7412     2.2825 C.ar    
   4 C4            -5.8320     4.8244     3.2478 C.ar    
   5 C5            -4.5775     4.1885     3.1874 C.ar    
   6 C6            -4.1938     3.2359     4.1445 C.ar    
   7 C7            -2.9713     2.6432     4.0515 C.ar    
   8 C8            -2.0952     2.9700     3.0188 C.ar    
   9 C9            -2.4348     3.8890     2.0740 C.ar    
  10 C10           -3.6880     4.5225     2.1360 C.ar    
  11 S11           -1.3073     4.2840     0.7789 S.o2    
  12 O12           -1.2209     5.7018     0.7405 O.2     
  13 O13           -0.1776     3.4411     0.9594 O.2     
  14 N14           -2.0142     3.8199    -0.6450 N.am    
  15 C15           -2.2204     2.4709    -0.9115 C.ar    
  16 C16           -2.1124     1.9960    -2.2160 C.ar    
  17 C17           -2.3159     0.6617    -2.4829 C.ar    
  18 C18           -2.6314    -0.2176    -1.4428 C.ar    
  19 C19           -2.7391     0.2622    -0.1343 C.ar    
  20 C20           -2.5288     1.5969     0.1271 C.ar    
  21 C21           -1.7728     2.9446    -3.3366 C.3     
  22 C22           -2.8507    -1.6487    -1.7256 C.2     
  23 O23           -3.4892    -1.9841    -2.7046 O.2     
  24 N24           -2.3432    -2.5845    -0.8990 N.am    
  25 C25           -2.4854    -4.0138    -1.2102 C.3     
  26 C26           -1.0917    -4.6539    -1.2211 C.3     
  27 N27           -0.3859    -4.2633     0.0074 N.am    
  28 C28           -0.2438    -2.8340     0.3186 C.3     
  29 C29           -1.6326    -2.1938     0.3266 C.3     
  30 C30            0.1215    -5.1991     0.8340 C.2     
  31 C31           -0.1169    -6.6327     0.5627 C.ar    
  32 C32            0.0857    -7.1576    -0.7192 C.ar    
  33 C33           -0.1522    -8.5078    -0.9206 C.ar    
  34 C34           -0.5787    -9.2864     0.1435 C.ar    
  35 N35           -0.7609    -8.7619     1.3401 N.ar    
  36 C36           -0.5421    -7.4860     1.5814 C.ar    
  37 O37            0.7753    -4.8643     1.8026 O.2     
  38 F38            0.0292    -9.0588    -2.1407 F       
  39 H39           -5.4709     6.7503     0.5188 H       
  40 H40           -7.0908     6.2474     2.2999 H       
  41 H41           -6.5337     4.5940     4.0359 H       
  42 H42           -4.8641     2.9748     4.9501 H       
  43 H43           -2.6769     1.9105     4.7882 H       
  44 H44           -1.1309     2.4865     2.9672 H       
  45 H45           -2.2844     4.4892    -1.2930 H       
  46 H46           -2.2323     0.2941    -3.4950 H       
  47 H47           -2.9827    -0.4146     0.6713 H       
  48 H48           -2.6072     1.9674     1.1385 H       
  49 H49           -0.6905     2.9913    -3.4577 H       
  50 H50           -2.2270     2.5910    -4.2622 H       
  51 H51           -2.1551     3.9377    -3.1005 H       
  52 H52           -3.1025    -4.4939    -0.4508 H       
  53 H53           -2.9492    -4.1306    -2.1896 H       
  54 H54           -1.1878    -5.7390    -1.2584 H       
  55 H55           -0.5349    -4.3034    -2.0901 H       
  56 H56            0.2201    -2.7173     1.2980 H       
  57 H57            0.3734    -2.3539    -0.4408 H       
  58 H58           -1.5333    -1.1089     0.3618 H       
  59 H59           -2.1876    -2.5413     1.1979 H       
  60 H60            0.4183    -6.5266    -1.5301 H       
  61 H61           -0.7653   -10.3391    -0.0094 H       
  62 H62           -0.6980    -7.0953     2.5762 H       
@<TRIPOS>BOND
   1    1    2 ar
   2    1   10 ar
   3    2    3 ar
   4    2   39 1
   5    3    4 ar
   6    3   40 1
   7    4    5 ar
   8    4   41 1
   9    5    6 ar
  10    5   10 ar
  11    6    7 ar
  12    6   42 1
  13    7    8 ar
  14    7   43 1
  15    8    9 ar
  16    8   44 1
  17    9   10 ar
  18    9   11 1
  19   11   12 2
  20   11   13 2
  21   11   14 am
  22   14   15 1
  23   14   45 1
  24   15   16 ar
  25   15   20 ar
  26   16   17 ar
  27   16   21 1
  28   17   18 ar
  29   17   46 1
  30   18   19 ar
  31   18   22 1
  32   19   20 ar
  33   19   47 1
  34   20   48 1
  35   21   49 1
  36   21   50 1
  37   21   51 1
  38   22   23 2
  39   22   24 am
  40   24   25 1
  41   24   29 1
  42   25   26 1
  43   25   52 1
  44   25   53 1
  45   26   27 1
  46   26   54 1
  47   26   55 1
  48   27   28 1
  49   27   30 am
  50   28   29 1
  51   28   56 1
  52   28   57 1
  53   29   58 1
  54   29   59 1
  55   30   31 1
  56   30   37 2
  57   31   32 ar
  58   31   36 ar
  59   32   33 ar
  60   32   60 1
  61   33   34 ar
  62   33   38 1
  63   34   35 ar
  64   34   61 1
  65   35   36 ar
  66   36   62 1

#	End of record

