#	Name: ASD01152503
#	Creating user name:	WinNT
#	Creation time:	15. 06. 2019 19:05

#	Modifying user name:	WinNT
#	Modification time:	15. 06. 2019 19:05

#	Program:	/corina/corina34_cracker 3.40 0067  02.08.2006

@<TRIPOS>MOLECULE
ASD01152503
  46   48    0    0    0
SMALL
NO_CHARGES


@<TRIPOS>ATOM
   1 C1             0.1164     1.1520    -0.7092 C.2     
   2 N2             0.0219    -0.1483    -0.6272 N.2     
   3 N3            -1.1176    -0.7676    -0.1141 N.am    
   4 C4            -2.2571    -0.0984     0.1271 C.2     
   5 C5            -2.3865     1.3536    -0.2689 C.3     
   6 C6            -1.0013     1.9717    -0.2168 C.2     
   7 C7            -2.9520     1.4554    -1.6870 C.3     
   8 O8            -0.8263     3.0960     0.2057 O.2     
   9 C9            -1.0722    -2.1395     0.1596 C.ar    
  10 O10           -3.1861    -0.6625     0.6649 O.2     
  11 C11           -3.1933     2.9031    -2.0288 C.ar    
  12 C12           -0.0088    -2.6698     0.8764 C.ar    
  13 C13           -2.0947    -2.9707    -0.2814 C.ar    
  14 C14           -2.0510    -4.3248    -0.0119 C.ar    
  15 C15           -0.9901    -4.8574     0.6972 C.ar    
  16 C16            0.0329    -4.0300     1.1458 C.ar    
  17 C17           -2.1921     3.6486    -2.6230 C.ar    
  18 C18           -2.4123     4.9762    -2.9374 C.ar    
  19 C19           -3.6363     5.5596    -2.6571 C.ar    
  20 C20           -4.6383     4.8120    -2.0620 C.ar    
  21 C21           -4.4175     3.4831    -1.7533 C.ar    
  22 Cl22          -0.9392    -6.5598     1.0336 Cl      
  23 F23           -3.8526     6.8575    -2.9635 F       
  24 N24            1.1035    -4.5686     1.8690 N.am    
  25 C25            1.7669    -3.8052     2.7598 C.2     
  26 O26            1.4972    -2.6278     2.8691 O.2     
  27 C27            2.8438    -4.4146     3.6200 C.3     
  28 O28            1.2262     1.7352    -1.2331 O.3     
  29 C29            2.2664     0.8642    -1.6818 C.3     
  30 H30           -3.0452     1.8695     0.4298 H       
  31 H31           -2.2399     1.0290    -2.3935 H       
  32 H32           -3.8924     0.9071    -1.7433 H       
  33 H33            0.7849    -2.0249     1.2236 H       
  34 H34           -2.9248    -2.5575    -0.8352 H       
  35 H35           -2.8471    -4.9686    -0.3554 H       
  36 H36           -1.2373     3.1935    -2.8412 H       
  37 H37           -1.6299     5.5585    -3.4012 H       
  38 H38           -5.5934     5.2660    -1.8429 H       
  39 H39           -5.1990     2.8997    -1.2891 H       
  40 H40            1.3680    -5.4913     1.7289 H       
  41 H41            3.6304    -4.8209     2.9841 H       
  42 H42            3.2636    -3.6494     4.2731 H       
  43 H43            2.4165    -5.2142     4.2251 H       
  44 H44            2.6199     0.2598    -0.8464 H       
  45 H45            1.8811     0.2114    -2.4651 H       
  46 H46            3.0918     1.4570    -2.0762 H       
@<TRIPOS>BOND
   1    1    2 2
   2    1   28 1
   3    1    6 1
   4    2    3 1
   5    3    4 am
   6    3    9 1
   7    4    5 1
   8    4   10 2
   9    5    6 1
  10    5    7 1
  11    5   30 1
  12    6    8 2
  13    7   11 1
  14    7   31 1
  15    7   32 1
  16    9   12 ar
  17    9   13 ar
  18   11   17 ar
  19   11   21 ar
  20   12   16 ar
  21   12   33 1
  22   13   14 ar
  23   13   34 1
  24   14   15 ar
  25   14   35 1
  26   15   16 ar
  27   15   22 1
  28   16   24 1
  29   17   18 ar
  30   17   36 1
  31   18   19 ar
  32   18   37 1
  33   19   20 ar
  34   19   23 1
  35   20   21 ar
  36   20   38 1
  37   21   39 1
  38   24   25 am
  39   24   40 1
  40   25   26 2
  41   25   27 1
  42   27   41 1
  43   27   42 1
  44   27   43 1
  45   28   29 1
  46   29   44 1
  47   29   45 1
  48   29   46 1

#	End of record

