#	Name: ASD01913878
#	Creating user name:	WinNT
#	Creation time:	15. 06. 2019 20:02

#	Modifying user name:	WinNT
#	Modification time:	15. 06. 2019 20:02

#	Program:	/corina/corina34_cracker 3.40 0067  02.08.2006

@<TRIPOS>MOLECULE
ASD01913878
  44   46    0    0    0
SMALL
NO_CHARGES


@<TRIPOS>ATOM
   1 C1            -0.2241     1.4150     0.2158 C.ar    
   2 C2            -0.1431    -0.0131     0.1467 C.1     
   3 C3            -0.0768    -1.1838     0.0901 C.1     
   4 C4             0.0042    -2.6118     0.0210 C.ar    
   5 C5             0.0929    -3.2609    -1.2196 C.ar    
   6 C6             0.1560    -5.3344    -0.0290 C.ar    
   7 N7             0.0767    -4.6926     1.1269 N.ar    
   8 C8             0.0019    -3.3793     1.1878 C.ar    
   9 C9             0.1693    -4.6391    -1.2345 C.ar    
  10 C10           -0.3122     2.0541     1.4554 C.ar    
  11 C11           -0.3899     3.4298     1.5141 C.ar    
  12 C12           -0.2096     2.1765    -0.9558 C.ar    
  13 C13           -0.3812     4.1770     0.3494 C.ar    
  14 C14           -0.2880     3.5515    -0.8814 C.ar    
  15 N15            0.2331    -6.7251    -0.0380 N.am    
  16 C16           -0.9046    -7.4278    -0.0254 C.2     
  17 O17           -0.9369    -8.7690     0.0128 O.3     
  18 C18            0.2876    -9.4731    -0.3333 C.3     
  19 C19            1.4501    -8.8031     0.4118 C.3     
  20 C20            1.5529    -7.3502    -0.0667 C.3     
  21 O21           -1.9586    -6.8237    -0.0493 O.2     
  22 C22            1.1846    -8.8371     1.9182 C.3     
  23 C23            0.1783   -10.9390     0.0913 C.3     
  24 C24            0.5237    -9.3877    -1.8426 C.3     
  25 H25            0.1008    -2.6963    -2.1402 H       
  26 H26           -0.0614    -2.8911     2.1491 H       
  27 H27            0.2382    -5.1720    -2.1713 H       
  28 H28           -0.3197     1.4721     2.3652 H       
  29 H29           -0.4580     3.9251     2.4714 H       
  30 H30           -0.1369     1.6897    -1.9171 H       
  31 H31           -0.4431     5.2540     0.4015 H       
  32 H32           -0.2814     4.1411    -1.7862 H       
  33 H33            2.3794    -9.3280     0.1903 H       
  34 H34            1.9473    -7.3307    -1.0826 H       
  35 H35            2.2243    -6.7989     0.5916 H       
  36 H36            1.0928    -9.8720     2.2477 H       
  37 H37            2.0121    -8.3605     2.4438 H       
  38 H38            0.2599    -8.3029     2.1363 H       
  39 H39           -0.6632   -11.4042    -0.4223 H       
  40 H40            1.0979   -11.4625    -0.1701 H       
  41 H41            0.0221   -10.9945     1.1686 H       
  42 H42            0.6127    -8.3423    -2.1378 H       
  43 H43            1.4421    -9.9167    -2.0972 H       
  44 H44           -0.3156    -9.8435    -2.3680 H       
@<TRIPOS>BOND
   1    1    2 1
   2    1   10 ar
   3    1   12 ar
   4    2    3 3
   5    3    4 1
   6    4    5 ar
   7    4    8 ar
   8    5    9 ar
   9    5   25 1
  10    6    7 ar
  11    6   15 1
  12    6    9 ar
  13    7    8 ar
  14    8   26 1
  15    9   27 1
  16   10   11 ar
  17   10   28 1
  18   11   13 ar
  19   11   29 1
  20   12   14 ar
  21   12   30 1
  22   13   14 ar
  23   13   31 1
  24   14   32 1
  25   15   16 am
  26   15   20 1
  27   16   17 1
  28   16   21 2
  29   17   18 1
  30   18   19 1
  31   18   23 1
  32   18   24 1
  33   19   20 1
  34   19   22 1
  35   19   33 1
  36   20   34 1
  37   20   35 1
  38   22   36 1
  39   22   37 1
  40   22   38 1
  41   23   39 1
  42   23   40 1
  43   23   41 1
  44   24   42 1
  45   24   43 1
  46   24   44 1

#	End of record

