#	Name: ASD00190031
#	Creating user name:	WinNT
#	Creation time:	15. 06. 2019 18:33

#	Modifying user name:	WinNT
#	Modification time:	15. 06. 2019 18:33

#	Program:	/corina/corina34_cracker 3.40 0067  02.08.2006

@<TRIPOS>MOLECULE
ASD00190031
  52   56    0    0    0
SMALL
NO_CHARGES


@<TRIPOS>ATOM
   1 C1            -0.0164     1.3588     0.0095 C.ar    
   2 C2             0.0021    -0.0041     0.0020 C.ar    
   3 C3             1.2038    -0.7043    -0.0132 C.ar    
   4 C4             2.3964    -0.0415    -0.0211 C.ar    
   5 C5             2.4117     1.3569    -0.0137 C.ar    
   6 C6             1.1907     2.0739     0.0018 C.ar    
   7 C7             3.6573     2.1117    -0.0221 C.ar    
   8 C8             3.5779     3.5078    -0.0142 C.ar    
   9 C9             2.3047     4.1210     0.0017 C.ar    
  10 N10            1.1971     3.4154     0.0094 N.ar    
  11 N11            4.9884     1.7986    -0.0371 N.pl3   
  12 C12            5.6805     2.9707    -0.0382 C.2     
  13 N13            4.8498     3.9736    -0.0247 N.2     
  14 N14            2.2229     5.5034     0.0100 N.pl3   
  15 C15            0.9131     6.1595     0.0265 C.3     
  16 C16            7.1827     3.0900    -0.0523 C.3     
  17 C17            7.7322     2.9991     1.3822 C.3     
  18 C18            8.6632     1.7696     1.4204 C.3     
  19 C19            9.0926     1.5723    -0.0547 C.3     
  20 C20            7.7990     1.9125    -0.8356 C.3     
  21 C21            1.1004     7.6548     0.0327 C.ar    
  22 C22            1.1743     8.3461    -1.1624 C.ar    
  23 C23            1.3460     9.7168    -1.1594 C.ar    
  24 C24            1.4443    10.3998     0.0442 C.ar    
  25 C25            1.3699     9.7038     1.2420 C.ar    
  26 C26            1.1925     8.3338     1.2337 C.ar    
  27 O27            1.6137    11.7481     0.0498 O.3     
  28 C28            1.7069    12.3850     1.3256 C.3     
  29 H29           -0.9583     1.8871     0.0169 H       
  30 H30           -0.9306    -0.5486     0.0084 H       
  31 H31            1.1928    -1.7843    -0.0185 H       
  32 H32            3.3242    -0.5942    -0.0325 H       
  33 H33            5.3689     0.9064    -0.0449 H       
  34 H34            3.0327     6.0372     0.0048 H       
  35 H35            0.3493     5.8676    -0.8595 H       
  36 H36            0.3670     5.8580     0.9204 H       
  37 H37            7.4776     4.0362    -0.5058 H       
  38 H38            8.2945     3.9009     1.6244 H       
  39 H39            6.9123     2.8687     2.0885 H       
  40 H40            9.5323     1.9686     2.0474 H       
  41 H41            8.1238     0.8938     1.7811 H       
  42 H42            9.8955     2.2605    -0.3186 H       
  43 H43            9.3924     0.5399    -0.2349 H       
  44 H44            7.1201     1.0598    -0.8392 H       
  45 H45            8.0374     2.2158    -1.8551 H       
  46 H46            1.0981     7.8139    -2.0991 H       
  47 H47            1.4041    10.2563    -2.0932 H       
  48 H48            1.4461    10.2332     2.1803 H       
  49 H49            1.1344     7.7916     2.1659 H       
  50 H50            0.7928    12.2023     1.8906 H       
  51 H51            2.5588    11.9805     1.8722 H       
  52 H52            1.8402    13.4579     1.1873 H       
@<TRIPOS>BOND
   1    1    2 ar
   2    1    6 ar
   3    1   29 1
   4    2    3 ar
   5    2   30 1
   6    3    4 ar
   7    3   31 1
   8    4    5 ar
   9    4   32 1
  10    5    6 ar
  11    5    7 ar
  12    6   10 ar
  13    7    8 ar
  14    7   11 1
  15    8    9 ar
  16    8   13 1
  17    9   10 ar
  18    9   14 1
  19   11   12 1
  20   11   33 1
  21   12   13 2
  22   12   16 1
  23   14   15 1
  24   14   34 1
  25   15   21 1
  26   15   35 1
  27   15   36 1
  28   16   17 1
  29   16   20 1
  30   16   37 1
  31   17   18 1
  32   17   38 1
  33   17   39 1
  34   18   19 1
  35   18   40 1
  36   18   41 1
  37   19   20 1
  38   19   42 1
  39   19   43 1
  40   20   44 1
  41   20   45 1
  42   21   22 ar
  43   21   26 ar
  44   22   23 ar
  45   22   46 1
  46   23   24 ar
  47   23   47 1
  48   24   25 ar
  49   24   27 1
  50   25   26 ar
  51   25   48 1
  52   26   49 1
  53   27   28 1
  54   28   50 1
  55   28   51 1
  56   28   52 1

#	End of record

