#	Name: ASD01911751
#	Creating user name:	WinNT
#	Creation time:	15. 06. 2019 19:58

#	Modifying user name:	WinNT
#	Modification time:	15. 06. 2019 19:58

#	Program:	/corina/corina34_cracker 3.40 0067  02.08.2006

@<TRIPOS>MOLECULE
ASD01911751
  40   42    0    0    0
SMALL
NO_CHARGES


@<TRIPOS>ATOM
   1 N1            -0.0178     1.4648     0.0101 N.3     
   2 C2             0.0021    -0.0041     0.0020 C.3     
   3 C3            -1.3878    -0.5267     0.2592 C.2     
   4 C4            -2.3098    -0.7956    -0.6733 C.2     
   5 S5            -2.0763    -0.8963     1.8390 S.3     
   6 C6            -3.5820    -1.3822     1.0640 C.2     
   7 N7            -3.4594    -1.2442    -0.2290 N.2     
   8 C8            -4.7503    -1.8572     1.7422 C.1     
   9 C9            -5.7082    -2.2466     2.2982 C.1     
  10 C10           -6.8766    -2.7216     2.9764 C.ar    
  11 C11           -8.0153    -3.0782     2.2481 C.ar    
  12 C12           -9.1365    -3.5352     2.9083 C.ar    
  13 C13           -9.1362    -3.6413     4.2881 C.ar    
  14 C14           -8.0129    -3.2897     5.0160 C.ar    
  15 C15           -6.8821    -2.8365     4.3696 C.ar    
  16 C16            1.3468     2.0100    -0.0000 C.3     
  17 C17            1.2824     3.5375    -0.0715 C.3     
  18 N18            0.5231     4.0476     1.0786 N.3     
  19 C19           -0.8416     3.5023     1.0887 C.3     
  20 C20           -0.7772     1.9749     1.1602 C.3     
  21 C21            0.5031     5.5164     1.0867 C.3     
  22 H22            0.3492    -0.3574    -0.9689 H       
  23 H23            0.6750    -0.3626     0.7809 H       
  24 H24           -2.1190    -0.6517    -1.7266 H       
  25 H25           -8.0171    -2.9957     1.1713 H       
  26 H26          -10.0171    -3.8108     2.3471 H       
  27 H27          -10.0172    -3.9998     4.7996 H       
  28 H28           -8.0202    -3.3748     6.0926 H       
  29 H29           -6.0061    -2.5629     4.9389 H       
  30 H30            1.8650     1.7101     0.9108 H       
  31 H31            1.8847     1.6277    -0.8675 H       
  32 H32            2.2930     3.9455    -0.0499 H       
  33 H33            0.7884     3.8378    -0.9955 H       
  34 H34           -1.3795     3.8846     1.9562 H       
  35 H35           -1.3598     3.8022     0.1779 H       
  36 H36           -1.7877     1.5669     1.1386 H       
  37 H37           -0.2831     1.6745     2.0843 H       
  38 H38            0.0357     5.8785     0.1710 H       
  39 H39           -0.0652     5.8674     1.9481 H       
  40 H40            1.5241     5.8933     1.1471 H       
@<TRIPOS>BOND
   1    1    2 1
   2    1   16 1
   3    1   20 1
   4    2    3 1
   5    2   22 1
   6    2   23 1
   7    3    4 2
   8    3    5 1
   9    4    7 1
  10    4   24 1
  11    5    6 1
  12    6    7 2
  13    6    8 1
  14    8    9 3
  15    9   10 1
  16   10   11 ar
  17   10   15 ar
  18   11   12 ar
  19   11   25 1
  20   12   13 ar
  21   12   26 1
  22   13   14 ar
  23   13   27 1
  24   14   15 ar
  25   14   28 1
  26   15   29 1
  27   16   17 1
  28   16   30 1
  29   16   31 1
  30   17   18 1
  31   17   32 1
  32   17   33 1
  33   18   19 1
  34   18   21 1
  35   19   20 1
  36   19   34 1
  37   19   35 1
  38   20   36 1
  39   20   37 1
  40   21   38 1
  41   21   39 1
  42   21   40 1

#	End of record

