#	Name: ASD05720077
#	Creating user name:	WinNT
#	Creation time:	15. 06. 2019 21:01

#	Modifying user name:	WinNT
#	Modification time:	15. 06. 2019 21:01

#	Program:	/corina/corina34_cracker 3.40 0067  02.08.2006

@<TRIPOS>MOLECULE
ASD05720077
  91   96    0    0    0
SMALL
NO_CHARGES


@<TRIPOS>ATOM
   1 N1             7.8034    -0.8765     6.1621 N.am    
   2 C2             7.3736    -2.1781     5.6329 C.3     
   3 C3             7.0795    -2.0293     4.1369 C.3     
   4 C4             6.0664    -0.9011     3.9299 C.3     
   5 C5             6.6559     0.4160     4.4396 C.3     
   6 C6             6.9451     0.2950     5.9391 C.3     
   7 C7             8.9601    -0.7605     6.8440 C.2     
   8 O8             9.6127    -1.7514     7.1062 O.2     
   9 O9             9.3925     0.4532     7.2345 O.3     
  10 O10            3.7456    -1.5781     1.4696 O.3     
  11 C11            3.6529    -0.2583     1.6667 C.2     
  12 N12            4.7472     0.2858     2.2163 N.am    
  13 C13            5.7440    -0.7725     2.4398 C.3     
  14 C14            5.0479    -2.0470     1.9246 C.3     
  15 O15            2.6668     0.3881     1.3737 O.2     
  16 C16            4.0073     3.6659     3.1279 C.2     
  17 N17            3.8650     2.3710     2.8289 N.2     
  18 C18            4.9134     1.6298     2.5239 C.2     
  19 C19            6.2020     2.2014     2.5106 C.2     
  20 C20            6.3496     3.5114     2.8126 C.2     
  21 N21            5.2445     4.2536     3.1246 N.pl3   
  22 N22            5.0829     5.5996     3.4716 N.2     
  23 C23            3.8124     5.8429     3.6811 C.2     
  24 C24            3.0863     4.6637     3.4744 C.2     
  25 C25            1.6206     4.5010     3.6001 C.ar    
  26 C26            0.9778     4.8580     4.7866 C.ar    
  27 C27           -0.3880     4.7060     4.9027 C.ar    
  28 C28           -1.1267     4.1949     3.8326 C.ar    
  29 C29           -0.4831     3.8387     2.6480 C.ar    
  30 C30            0.8800     3.9958     2.5298 C.ar    
  31 N31           -4.6865     3.5299     3.5818 N.pl3   
  32 N32           -3.3834     3.4769     3.0608 N.2     
  33 C33           -2.5952     4.0307     3.9567 C.2     
  34 N34           -3.3396     4.4218     5.0002 N.2     
  35 C35           -4.5940     4.1257     4.7841 C.2     
  36 C36           -5.9078     3.0384     2.9390 C.3     
  37 O37           -7.0266     3.2799     3.7945 O.3     
  38 C38           -8.2746     2.8356     3.2587 C.3     
  39 C39           -9.3954     3.1436     4.2536 C.3     
  40 Si40         -11.0224     2.5643     3.5550 Si      
  41 C41          -10.9491     0.7278     3.2510 C.3     
  42 C42          -12.3872     2.9393     4.7664 C.3     
  43 C43          -11.3580     3.4467     1.9489 C.3     
  44 F44           -1.0113     5.0507     6.0507 F       
  45 C45           10.5760     0.4924     8.0748 C.3     
  46 C46           11.7728    -0.0573     7.2961 C.3     
  47 C47           10.8585     1.9374     8.4909 C.3     
  48 C48           10.3439    -0.3616     9.3229 C.3     
  49 H49            8.1667    -2.9115     5.7783 H       
  50 H50            6.4722    -2.5039     6.1519 H       
  51 H51            8.0018    -1.7919     3.6067 H       
  52 H52            6.6683    -2.9627     3.7524 H       
  53 H53            5.1533    -1.1275     4.4805 H       
  54 H54            7.5821     0.6304     3.9066 H       
  55 H55            5.9431     1.2231     4.2706 H       
  56 H56            6.0088     0.1708     6.4830 H       
  57 H57            7.4555     1.1933     6.2864 H       
  58 H58            6.6496    -0.5727     1.8670 H       
  59 H59            4.9329    -2.7719     2.7305 H       
  60 H60            5.6086    -2.4805     1.0965 H       
  61 H61            7.0631     1.5989     2.2620 H       
  62 H62            7.3292     3.9660     2.8077 H       
  63 H63            3.3936     6.7974     3.9638 H       
  64 H64            1.5498     5.2526     5.6133 H       
  65 H65           -1.0545     3.4437     1.8210 H       
  66 H66            1.3769     3.7239     1.6103 H       
  67 H67           -5.4157     4.3252     5.4559 H       
  68 H68           -6.0550     3.5589     1.9927 H       
  69 H69           -5.8158     1.9681     2.7545 H       
  70 H70           -8.4709     3.3519     2.3190 H       
  71 H71           -8.2317     1.7611     3.0808 H       
  72 H72           -9.1991     2.6273     5.1933 H       
  73 H73           -9.4383     4.2181     4.4314 H       
  74 H74          -10.7528     0.2115     4.1907 H       
  75 H75          -11.9011     0.3889     2.8423 H       
  76 H76          -10.1507     0.5084     2.5422 H       
  77 H77          -12.4300     4.0139     4.9443 H       
  78 H78          -13.3391     2.6004     4.3577 H       
  79 H79          -12.1908     2.4231     5.7061 H       
  80 H80          -10.5595     3.2273     1.2401 H       
  81 H81          -12.3099     3.1078     1.5401 H       
  82 H82          -11.4008     4.5212     2.1267 H       
  83 H83           11.9917     0.6000     6.4545 H       
  84 H84           12.6413    -0.1081     7.9528 H       
  85 H85           11.5382    -1.0554     6.9261 H       
  86 H86           10.0058     2.3290     9.0456 H       
  87 H87           11.7469     1.9668     9.1217 H       
  88 H88           11.0239     2.5458     7.6017 H       
  89 H89           10.1427    -1.3910     9.0264 H       
  90 H90           11.2323    -0.3322     9.9537 H       
  91 H91            9.4913     0.0300     9.8776 H       
@<TRIPOS>BOND
   1    1    2 1
   2    1    6 1
   3    1    7 am
   4    2    3 1
   5    2   49 1
   6    2   50 1
   7    3    4 1
   8    3   51 1
   9    3   52 1
  10    4    5 1
  11    4   13 1
  12    4   53 1
  13    5    6 1
  14    5   54 1
  15    5   55 1
  16    6   56 1
  17    6   57 1
  18    7    8 2
  19    7    9 1
  20    9   45 1
  21   10   11 1
  22   10   14 1
  23   11   12 am
  24   11   15 2
  25   12   13 1
  26   12   18 1
  27   13   14 1
  28   13   58 1
  29   14   59 1
  30   14   60 1
  31   16   17 1
  32   16   21 1
  33   16   24 2
  34   17   18 2
  35   18   19 1
  36   19   20 2
  37   19   61 1
  38   20   21 1
  39   20   62 1
  40   21   22 1
  41   22   23 2
  42   23   24 1
  43   23   63 1
  44   24   25 1
  45   25   26 ar
  46   25   30 ar
  47   26   27 ar
  48   26   64 1
  49   27   28 ar
  50   27   44 1
  51   28   29 ar
  52   28   33 1
  53   29   30 ar
  54   29   65 1
  55   30   66 1
  56   31   32 1
  57   31   35 1
  58   31   36 1
  59   32   33 2
  60   33   34 1
  61   34   35 2
  62   35   67 1
  63   36   37 1
  64   36   68 1
  65   36   69 1
  66   37   38 1
  67   38   39 1
  68   38   70 1
  69   38   71 1
  70   39   40 1
  71   39   72 1
  72   39   73 1
  73   40   41 1
  74   40   42 1
  75   40   43 1
  76   41   74 1
  77   41   75 1
  78   41   76 1
  79   42   77 1
  80   42   78 1
  81   42   79 1
  82   43   80 1
  83   43   81 1
  84   43   82 1
  85   45   46 1
  86   45   48 1
  87   45   47 1
  88   46   83 1
  89   46   84 1
  90   46   85 1
  91   47   86 1
  92   47   87 1
  93   47   88 1
  94   48   89 1
  95   48   90 1
  96   48   91 1

#	End of record

