#	Name: ASD04012007
#	Creating user name:	WinNT
#	Creation time:	15. 06. 2019 20:48

#	Modifying user name:	WinNT
#	Modification time:	15. 06. 2019 20:48

#	Program:	/corina/corina34_cracker 3.40 0067  02.08.2006

@<TRIPOS>MOLECULE
ASD04012007
  31   33    0    0    0
SMALL
NO_CHARGES


@<TRIPOS>ATOM
   1 N1            -0.0169     1.3947     0.0097 N.pl3   
   2 C2             1.2749     1.8381    -0.0002 C.2     
   3 N3             1.5502     3.1424     0.0042 N.2     
   4 C4             0.5842     4.0405     0.0182 C.2     
   5 C5            -0.7502     3.6341     0.0292 C.2     
   6 C6            -1.0426     2.2984     0.0193 C.2     
   7 N7             0.0021    -0.0041     0.0020 N.2     
   8 C8             1.2378    -0.4249    -0.0121 C.2     
   9 C9             2.0957     0.6927    -0.0143 C.2     
  10 O10           -2.3275     1.8775     0.0292 O.3     
  11 C11           -1.8575     4.6562     0.0462 C.3     
  12 C12           -2.1285     5.0797     1.4669 C.ar    
  13 Cl13           0.9745     5.7320     0.0236 Cl      
  14 C14           -1.4449     6.1509     2.0111 C.ar    
  15 C15           -1.6934     6.5393     3.3143 C.ar    
  16 C16           -2.6258     5.8568     4.0731 C.ar    
  17 C17           -3.3100     4.7862     3.5286 C.ar    
  18 C18           -3.0646     4.4005     2.2240 C.ar    
  19 C19            3.5581     0.6687    -0.0284 C.2     
  20 O20            4.1837     1.7122    -0.0292 O.2     
  21 O21            4.2133    -0.5106    -0.0405 O.3     
  22 H22            1.5506    -1.4585    -0.0203 H       
  23 H23           -2.4264     0.9156     0.0208 H       
  24 H24           -1.5595     5.5246    -0.5412 H       
  25 H25           -2.7605     4.2207    -0.3816 H       
  26 H26           -0.7165     6.6841     1.4183 H       
  27 H27           -1.1589     7.3758     3.7397 H       
  28 H28           -2.8194     6.1598     5.0915 H       
  29 H29           -4.0382     4.2527     4.1215 H       
  30 H30           -3.5992     3.5640     1.7985 H       
  31 H31            5.1765    -0.4253    -0.0493 H       
@<TRIPOS>BOND
   1    1    7 1
   2    1    2 1
   3    1    6 1
   4    2    3 1
   5    2    9 2
   6    3    4 2
   7    4    5 1
   8    4   13 1
   9    5    6 2
  10    5   11 1
  11    6   10 1
  12    7    8 2
  13    8    9 1
  14    8   22 1
  15    9   19 1
  16   10   23 1
  17   11   12 1
  18   11   24 1
  19   11   25 1
  20   12   14 ar
  21   12   18 ar
  22   14   15 ar
  23   14   26 1
  24   15   16 ar
  25   15   27 1
  26   16   17 ar
  27   16   28 1
  28   17   18 ar
  29   17   29 1
  30   18   30 1
  31   19   20 2
  32   19   21 1
  33   21   31 1

#	End of record

