#	Name: ASD00310136
#	Creating user name:	WinNT
#	Creation time:	15. 06. 2019 18:33

#	Modifying user name:	WinNT
#	Modification time:	15. 06. 2019 18:33

#	Program:	/corina/corina34_cracker 3.40 0067  02.08.2006

@<TRIPOS>MOLECULE
ASD00310136
  39   41    0    0    0
SMALL
NO_CHARGES


@<TRIPOS>ATOM
   1 C1            -0.0184     1.5028     0.0103 C.2     
   2 C2             0.0021    -0.0041     0.0020 C.3     
   3 O3             1.0236     2.1234     0.0037 O.2     
   4 N4            -1.1946     2.1607     0.0195 N.am    
   5 C5            -1.2145     3.6256     0.0275 C.3     
   6 O6             1.3556    -0.4620    -0.0134 O.3     
   7 C7             1.5519    -1.8066    -0.0225 C.ar    
   8 C8             2.8424    -2.3182    -0.0375 C.ar    
   9 C9             3.0448    -3.6824    -0.0463 C.ar    
  10 C10            1.9521    -4.5476    -0.0401 C.ar    
  11 C11            0.6576    -4.0310    -0.0249 C.ar    
  12 C12            0.4617    -2.6659    -0.0109 C.ar    
  13 N13            2.5917   -10.1318     0.1275 N.pl3   
  14 C14            1.7832   -10.4574     1.1542 C.2     
  15 C15            1.2006    -9.3172     1.6647 C.2     
  16 C16            1.7170    -8.1942     0.8563 C.ar    
  17 C17            1.5106    -6.8197     0.8740 C.ar    
  18 C18            2.1664    -6.0156    -0.0500 C.ar    
  19 C19            3.0284    -6.5904    -0.9901 C.ar    
  20 C20            3.2338    -7.9512    -1.0088 C.ar    
  21 C21            2.5824    -8.7686    -0.0886 C.ar    
  22 C22            0.2892    -9.2384     2.7469 C.2     
  23 O23           -0.0531   -10.2484     3.3270 O.2     
  24 Cl24           3.8446    -5.5799    -2.1418 Cl      
  25 H25           -0.4983    -0.3791     0.8948 H       
  26 H26           -0.5153    -0.3696    -0.8850 H       
  27 H27           -2.0280     1.6644     0.0207 H       
  28 H28           -2.2469     3.9749     0.0343 H       
  29 H29           -0.7014     3.9910     0.9171 H       
  30 H30           -0.7098     4.0007    -0.8628 H       
  31 H31            3.6886    -1.6472    -0.0427 H       
  32 H32            4.0489    -4.0798    -0.0584 H       
  33 H33           -0.1910    -4.6990    -0.0201 H       
  34 H34           -0.5410    -2.2650     0.0054 H       
  35 H35            3.1127   -10.7680    -0.3871 H       
  36 H36            1.6162   -11.4593     1.5212 H       
  37 H37            0.8437    -6.3797     1.6006 H       
  38 H38            3.9009    -8.3857    -1.7386 H       
  39 H39           -0.1010    -8.2798     3.0556 H       
@<TRIPOS>BOND
   1    1    2 1
   2    1    3 2
   3    1    4 am
   4    2    6 1
   5    2   25 1
   6    2   26 1
   7    4    5 1
   8    4   27 1
   9    5   28 1
  10    5   29 1
  11    5   30 1
  12    6    7 1
  13    7    8 ar
  14    7   12 ar
  15    8    9 ar
  16    8   31 1
  17    9   10 ar
  18    9   32 1
  19   10   11 ar
  20   10   18 1
  21   11   12 ar
  22   11   33 1
  23   12   34 1
  24   13   14 1
  25   13   21 1
  26   13   35 1
  27   14   15 2
  28   14   36 1
  29   15   16 1
  30   15   22 1
  31   16   17 ar
  32   16   21 ar
  33   17   18 ar
  34   17   37 1
  35   18   19 ar
  36   19   20 ar
  37   19   24 1
  38   20   21 ar
  39   20   38 1
  40   22   23 2
  41   22   39 1

#	End of record

