#	Name: ASD00122003
#	Creating user name:	WinNT
#	Creation time:	15. 06. 2019 18:31

#	Modifying user name:	WinNT
#	Modification time:	15. 06. 2019 18:31

#	Program:	/corina/corina34_cracker 3.40 0067  02.08.2006

@<TRIPOS>MOLECULE
ASD00122003
  35   35    0    0    0
SMALL
NO_CHARGES


@<TRIPOS>ATOM
   1 C1            -0.0168     1.3858     0.0097 C.ar    
   2 C2             0.0021    -0.0041     0.0020 C.ar    
   3 C3             1.2130    -0.6863    -0.0132 C.ar    
   4 C4             2.3993     0.0128    -0.0203 C.ar    
   5 C5             2.3846     1.4101    -0.0126 C.ar    
   6 C6             1.1652     2.0922     0.0022 C.ar    
   7 C7             3.6539     2.1635    -0.0197 C.2     
   8 N8             3.6377     3.5111    -0.0123 N.am    
   9 O9             4.7140     1.5683    -0.0322 O.2     
  10 C10            4.8974     4.2589    -0.0193 C.3     
  11 C11            4.6634     5.6467    -0.6195 C.3     
  12 C12            5.4128     4.4033     1.4140 C.3     
  13 C13            5.7648     3.0225     1.9710 C.3     
  14 C14            4.2680     5.5060    -2.0908 C.3     
  15 O15           -1.1649    -0.6968     0.0099 O.3     
  16 C16           -1.0730    -2.1228     0.0013 C.3     
  17 H17           -0.9597     1.9123     0.0170 H       
  18 H18            1.2235    -1.7663    -0.0191 H       
  19 H19            3.3397    -0.5180    -0.0314 H       
  20 H20            1.1497     3.1721     0.0078 H       
  21 H21            2.7919     3.9859    -0.0024 H       
  22 H22            5.6343     3.7236    -0.6181 H       
  23 H23            3.8635     6.1480    -0.0746 H       
  24 H24            5.5784     6.2343    -0.5437 H       
  25 H25            6.3015     5.0344     1.4187 H       
  26 H26            4.6403     4.8589     2.0336 H       
  27 H27            4.8760     2.3914     1.9663 H       
  28 H28            6.5372     2.5669     1.3514 H       
  29 H29            6.1319     3.1254     2.9922 H       
  30 H30            5.0680     5.0047    -2.6357 H       
  31 H31            3.3531     4.9184    -2.1666 H       
  32 H32            4.1013     6.4947    -2.5183 H       
  33 H33           -0.5457    -2.4475    -0.8957 H       
  34 H34           -0.5280    -2.4570     0.8841 H       
  35 H35           -2.0751    -2.5515     0.0089 H       
@<TRIPOS>BOND
   1    1    2 ar
   2    1    6 ar
   3    1   17 1
   4    2    3 ar
   5    2   15 1
   6    3    4 ar
   7    3   18 1
   8    4    5 ar
   9    4   19 1
  10    5    6 ar
  11    5    7 1
  12    6   20 1
  13    7    8 am
  14    7    9 2
  15    8   10 1
  16    8   21 1
  17   10   11 1
  18   10   12 1
  19   10   22 1
  20   11   14 1
  21   11   23 1
  22   11   24 1
  23   12   13 1
  24   12   25 1
  25   12   26 1
  26   13   27 1
  27   13   28 1
  28   13   29 1
  29   14   30 1
  30   14   31 1
  31   14   32 1
  32   15   16 1
  33   16   33 1
  34   16   34 1
  35   16   35 1

#	End of record

