#	Name: ASD01850079
#	Creating user name:	WinNT
#	Creation time:	15. 06. 2019 19:38

#	Modifying user name:	WinNT
#	Modification time:	15. 06. 2019 19:38

#	Program:	/corina/corina34_cracker 3.40 0067  02.08.2006

@<TRIPOS>MOLECULE
ASD01850079
  63   67    0    0    0
SMALL
NO_CHARGES


@<TRIPOS>ATOM
   1 C1             8.8439     2.5162     2.5055 C.ar    
   2 C2             9.0531     3.6143     1.6926 C.ar    
   3 C3             7.9888     4.1957     1.0287 C.ar    
   4 C4             6.7157     3.6786     1.1777 C.ar    
   5 C5             6.5066     2.5796     1.9901 C.ar    
   6 C6             7.5704     1.9993     2.6549 C.ar    
   7 C7             3.9125     2.7261     0.0364 C.3     
   8 N8             4.1556     2.8856     1.4723 N.am    
   9 C9             3.4934     3.8320     2.1668 C.2     
  10 C10            3.8157     4.0637     3.6206 C.3     
  11 O11            2.6382     4.4972     1.6217 O.2     
  12 C12            3.2768     5.4300     4.0507 C.3     
  13 C13            3.1659     2.9674     4.4679 C.3     
  14 C14            3.5242     3.1864     5.9411 C.3     
  15 N15            3.1397     4.5520     6.3233 N.am    
  16 C16            3.6363     5.6769     5.5193 C.3     
  17 C17            3.2159     5.0078     9.0364 C.ar    
  18 C18            3.6719     6.2483     9.3763 C.ar    
  19 C19            4.5064     6.3978    10.4897 C.ar    
  20 C20            4.8665     5.2667    11.2473 C.ar    
  21 C21            4.3853     4.0134    10.8764 C.ar    
  22 C22            3.5682     3.8935     9.7884 C.ar    
  23 C23            5.1586     7.5397    11.1223 C.2     
  24 N24            5.8292     7.0972    12.1474 N.2     
  25 N25            5.6769     5.7113    12.2591 N.pl3   
  26 C26            5.1184     2.0164     2.1533 C.3     
  27 C27            2.4302     2.5222    -0.3186 C.3     
  28 C28            2.6755     3.4380    -1.5294 C.3     
  29 C29            3.8307     4.0589    -0.7263 C.3     
  30 S30            2.1647     4.8181     7.6351 S.o2    
  31 O31            1.5447     6.0793     7.4250 O.2     
  32 O32            1.4334     3.6174     7.8417 O.2     
  33 C33            7.3424     0.8017     3.5408 C.3     
  34 F34            8.5679     0.3574     4.0488 F       
  35 F35            6.5005     1.1585     4.5996 F       
  36 F36            6.7472    -0.2225     2.7965 F       
  37 H37            9.6760     2.0593     3.0205 H       
  38 H38           10.0479     4.0184     1.5762 H       
  39 H39            8.1521     5.0541     0.3941 H       
  40 H40            5.8842     4.1332     0.6597 H       
  41 H41            4.5768     1.9964    -0.4268 H       
  42 H42            4.8962     4.0388     3.7614 H       
  43 H43            3.7224     6.2083     3.4313 H       
  44 H44            2.1932     5.4470     3.9337 H       
  45 H45            2.0834     3.0076     4.3469 H       
  46 H46            3.5326     1.9929     4.1453 H       
  47 H47            2.9848     2.4685     6.5590 H       
  48 H48            4.5976     3.0568     6.0793 H       
  49 H49            4.7189     5.7504     5.6230 H       
  50 H50            3.1710     6.6023     5.8588 H       
  51 H51            3.3906     7.1099     8.7889 H       
  52 H52            4.6551     3.1387    11.4496 H       
  53 H53            3.1971     2.9197     9.5048 H       
  54 H54            5.0964     8.5681    10.7983 H       
  55 H55            6.0799     5.1542    12.9432 H       
  56 H56            5.0778     1.0180     1.7178 H       
  57 H57            4.8711     1.9607     3.2134 H       
  58 H58            2.1834     1.4959    -0.5902 H       
  59 H59            1.7435     2.9436     0.4156 H       
  60 H60            3.0017     2.9039    -2.4218 H       
  61 H61            1.8576     4.1315    -1.7251 H       
  62 H62            3.5269     4.9003    -0.1037 H       
  63 H63            4.7145     4.2731    -1.3272 H       
@<TRIPOS>BOND
   1    1    2 ar
   2    1    6 ar
   3    1   37 1
   4    2    3 ar
   5    2   38 1
   6    3    4 ar
   7    3   39 1
   8    4    5 ar
   9    4   40 1
  10    5    6 ar
  11    5   26 1
  12    6   33 1
  13    7    8 1
  14    7   27 1
  15    7   29 1
  16    7   41 1
  17    8    9 am
  18    8   26 1
  19    9   10 1
  20    9   11 2
  21   10   12 1
  22   10   13 1
  23   10   42 1
  24   12   16 1
  25   12   43 1
  26   12   44 1
  27   13   14 1
  28   13   45 1
  29   13   46 1
  30   14   15 1
  31   14   47 1
  32   14   48 1
  33   15   30 am
  34   15   16 1
  35   16   49 1
  36   16   50 1
  37   17   30 1
  38   17   18 ar
  39   17   22 ar
  40   18   19 ar
  41   18   51 1
  42   19   20 ar
  43   19   23 1
  44   20   21 ar
  45   20   25 1
  46   21   22 ar
  47   21   52 1
  48   22   53 1
  49   23   24 2
  50   23   54 1
  51   24   25 1
  52   25   55 1
  53   26   56 1
  54   26   57 1
  55   27   28 1
  56   27   58 1
  57   27   59 1
  58   28   29 1
  59   28   60 1
  60   28   61 1
  61   29   62 1
  62   29   63 1
  63   30   31 2
  64   30   32 2
  65   33   34 1
  66   33   35 1
  67   33   36 1

#	End of record

