#	Name: ASD03330179
#	Creating user name:	WinNT
#	Creation time:	15. 06. 2019 20:36

#	Modifying user name:	WinNT
#	Modification time:	15. 06. 2019 20:36

#	Program:	/corina/corina34_cracker 3.40 0067  02.08.2006

@<TRIPOS>MOLECULE
ASD03330179
  49   52    0    0    0
SMALL
NO_CHARGES


@<TRIPOS>ATOM
   1 C1            -0.5992     0.6187    -2.9899 C.ar    
   2 C2            -1.9093     0.8599    -3.3638 C.ar    
   3 C3            -2.9487     0.3528    -2.6089 C.ar    
   4 C4            -2.6780    -0.4001    -1.4739 C.ar    
   5 C5            -1.3622    -0.6410    -1.1011 C.ar    
   6 C6            -0.3266    -0.1359    -1.8627 C.ar    
   7 N7            -3.7295    -0.9148    -0.7067 N.am    
   8 C8            -4.8843    -0.2282    -0.5993 C.2     
   9 N9            -5.9334    -0.7713     0.0495 N.am    
  10 O10           -4.9796     0.8812    -1.0876 O.2     
  11 C11           -7.0950    -0.0183     0.2553 C.ar    
  12 C12           -8.3336    -0.6411     0.2584 C.ar    
  13 C13           -9.4868     0.1125     0.4635 C.ar    
  14 C14           -9.3891     1.4882     0.6646 C.ar    
  15 C15           -8.1517     2.1008     0.6600 C.ar    
  16 C16           -7.0067     1.3530     0.4623 C.ar    
  17 C17          -10.8154    -0.5474     0.4676 C.ar    
  18 N18          -10.8991    -1.8584     0.2748 N.ar    
  19 C19          -11.9615     0.2127     0.6791 C.ar    
  20 C20          -13.1985    -0.4135     0.6814 C.ar    
  21 C21          -13.2493    -1.7808     0.4721 C.ar    
  22 C22          -12.0646    -2.4838     0.2717 C.ar    
  23 N23          -12.1074    -3.8569     0.0603 N.3     
  24 C24          -10.7517    -4.4049    -0.1288 C.3     
  25 C25          -10.5506    -5.5046     0.9349 C.3     
  26 C26          -12.0036    -5.9089     1.2986 C.3     
  27 C27          -12.7399    -4.5494     1.2032 C.3     
  28 Br28           0.8213     1.3151    -4.0257 Br      
  29 H29           -2.1193     1.4455    -4.2466 H       
  30 H30           -3.9712     0.5419    -2.9008 H       
  31 H31           -1.1489    -1.2259    -0.2187 H       
  32 H32            0.6970    -0.3230    -1.5732 H       
  33 H33           -3.6271    -1.7656    -0.2523 H       
  34 H34           -5.8834    -1.6842     0.3737 H       
  35 H35           -8.4041    -1.7073     0.1018 H       
  36 H36          -10.2816     2.0752     0.8236 H       
  37 H37           -8.0782     3.1669     0.8160 H       
  38 H38           -6.0412     1.8369     0.4599 H       
  39 H39          -11.8883     1.2782     0.8399 H       
  40 H40          -14.1033     0.1535     0.8436 H       
  41 H41          -14.1978    -2.2973     0.4682 H       
  42 H42          -10.6609    -4.8334    -1.1269 H       
  43 H43          -10.0109    -3.6170     0.0077 H       
  44 H44          -10.0083    -6.3520     0.5154 H       
  45 H45          -10.0315    -5.1069     1.8070 H       
  46 H46          -12.4031    -6.6209     0.5764 H       
  47 H47          -12.0553    -6.3109     2.3105 H       
  48 H48          -12.5987    -3.9763     2.1195 H       
  49 H49          -13.8016    -4.7055     1.0120 H       
@<TRIPOS>BOND
   1    1    2 ar
   2    1   28 1
   3    1    6 ar
   4    2    3 ar
   5    2   29 1
   6    3    4 ar
   7    3   30 1
   8    4    5 ar
   9    4    7 1
  10    5    6 ar
  11    5   31 1
  12    6   32 1
  13    7    8 am
  14    7   33 1
  15    8    9 am
  16    8   10 2
  17    9   11 1
  18    9   34 1
  19   11   12 ar
  20   11   16 ar
  21   12   13 ar
  22   12   35 1
  23   13   14 ar
  24   13   17 1
  25   14   15 ar
  26   14   36 1
  27   15   16 ar
  28   15   37 1
  29   16   38 1
  30   17   18 ar
  31   17   19 ar
  32   18   22 ar
  33   19   20 ar
  34   19   39 1
  35   20   21 ar
  36   20   40 1
  37   21   22 ar
  38   21   41 1
  39   22   23 1
  40   23   24 1
  41   23   27 1
  42   24   25 1
  43   24   42 1
  44   24   43 1
  45   25   26 1
  46   25   44 1
  47   25   45 1
  48   26   27 1
  49   26   46 1
  50   26   47 1
  51   27   48 1
  52   27   49 1

#	End of record

