#	Name: ASD05170008
#	Creating user name:	WinNT
#	Creation time:	15. 06. 2019 20:57

#	Modifying user name:	WinNT
#	Modification time:	15. 06. 2019 20:57

#	Program:	/corina/corina34_cracker 3.40 0067  02.08.2006

@<TRIPOS>MOLECULE
ASD05170008
  46   48    0    0    0
SMALL
NO_CHARGES


@<TRIPOS>ATOM
   1 C1            -0.0241     1.4084    -0.3049 C.ar    
   2 C2            -0.0349     0.0587     0.0243 C.ar    
   3 C3             1.1500    -0.5924     0.3443 C.ar    
   4 C4             2.3420     0.0981     0.3361 C.ar    
   5 C5             2.3581     1.4566     0.0050 C.ar    
   6 C6             1.1629     2.1076    -0.3160 C.ar    
   7 C7             3.5945     2.1790    -0.0046 C.1     
   8 C8             4.6081     2.7713    -0.0124 C.1     
   9 C9             5.8445     3.4937    -0.0219 C.ar    
  10 C10            5.8579     4.8536    -0.3538 C.ar    
  11 C11            7.0338     5.5458    -0.3636 C.ar    
  12 C12            8.2320     4.9003    -0.0422 C.ar    
  13 C13            8.2268     3.5394     0.2910 C.ar    
  14 C14            7.0378     2.8418     0.3060 C.ar    
  15 F15            9.3832     2.9137     0.6018 F       
  16 C16            9.5007     5.6517    -0.0545 C.2     
  17 N17            9.8148     6.4267    -1.1115 N.am    
  18 O18           10.2637     5.5720     0.8891 O.2     
  19 C19           11.0150     7.2738    -1.0882 C.3     
  20 C20           11.8607     6.9647    -2.3276 C.3     
  21 C21           10.9995     7.1291    -3.5819 C.3     
  22 C22            9.8324     6.1403    -3.5347 C.3     
  23 C23            8.9667     6.4358    -2.3112 C.3     
  24 O24           12.9672     7.8670    -2.3871 O.3     
  25 O25           -1.2076    -0.6264     0.0338 O.3     
  26 C26           -1.1472    -2.0112     0.3812 C.3     
  27 H27           -0.5071    -2.5361    -0.3279 H       
  28 H28           -0.7386    -2.1162     1.3863 H       
  29 H29           -2.1498    -2.4377     0.3503 H       
  30 H30           -0.9472     1.9092    -0.5570 H       
  31 H31            1.1365    -1.6416     0.6003 H       
  32 H32            3.2625    -0.4088     0.5853 H       
  33 H33            1.1703     3.1566    -0.5727 H       
  34 H34            4.9350     5.3562    -0.6030 H       
  35 H35            7.0392     6.5948    -0.6207 H       
  36 H36            7.0288     1.7927     0.5622 H       
  37 H37           10.7216     8.3235    -1.0986 H       
  38 H38           11.5937     7.0629    -0.1890 H       
  39 H39           12.2287     5.9403    -2.2706 H       
  40 H40           10.6116     8.1468    -3.6253 H       
  41 H41           11.6055     6.9337    -4.4666 H       
  42 H42            9.2328     6.2417    -4.4393 H       
  43 H43           10.2195     5.1236    -3.4664 H       
  44 H44            8.1926     5.6741    -2.2188 H       
  45 H45            8.5054     7.4175    -2.4186 H       
  46 H46           13.5556     7.8190    -1.6212 H       
@<TRIPOS>BOND
   1    1    2 ar
   2    1    6 ar
   3    1   30 1
   4    2    3 ar
   5    2   25 1
   6    3    4 ar
   7    3   31 1
   8    4    5 ar
   9    4   32 1
  10    5    6 ar
  11    5    7 1
  12    6   33 1
  13    7    8 3
  14    8    9 1
  15    9   10 ar
  16    9   14 ar
  17   10   11 ar
  18   10   34 1
  19   11   12 ar
  20   11   35 1
  21   12   13 ar
  22   12   16 1
  23   13   14 ar
  24   13   15 1
  25   14   36 1
  26   16   17 am
  27   16   18 2
  28   17   19 1
  29   17   23 1
  30   19   20 1
  31   19   37 1
  32   19   38 1
  33   20   21 1
  34   20   24 1
  35   20   39 1
  36   21   22 1
  37   21   40 1
  38   21   41 1
  39   22   23 1
  40   22   42 1
  41   22   43 1
  42   23   44 1
  43   23   45 1
  44   24   46 1
  45   25   26 1
  46   26   27 1
  47   26   28 1
  48   26   29 1

#	End of record

