#	Name: ASD01815754
#	Creating user name:	WinNT
#	Creation time:	15. 06. 2019 19:33

#	Modifying user name:	WinNT
#	Modification time:	15. 06. 2019 19:33

#	Program:	/corina/corina34_cracker 3.40 0067  02.08.2006

@<TRIPOS>MOLECULE
ASD01815754
  59   63    0    0    0
SMALL
NO_CHARGES


@<TRIPOS>ATOM
   1 C1            -0.0168     1.3869     0.0097 C.ar    
   2 C2             0.0021    -0.0041     0.0020 C.ar    
   3 C3             1.1801    -0.6897    -0.0129 C.ar    
   4 C4             2.3948     0.0129    -0.0207 C.ar    
   5 C5             2.3717     1.4290    -0.0129 C.ar    
   6 C6             1.1455     2.1015     0.0024 C.ar    
   7 C7             3.6293    -0.6694    -0.0365 C.ar    
   8 C8             4.8031     0.0063    -0.0446 C.ar    
   9 C9             4.8359     1.4095    -0.0374 C.ar    
  10 C10            3.6406     2.1511    -0.0211 C.ar    
  11 C11            6.1026     2.1526    -0.0470 C.2     
  12 N12            6.0328     3.5041    -0.0399 N.am    
  13 C13            4.8302     4.1313    -0.0241 C.2     
  14 N14            3.6961     3.4935    -0.0158 N.2     
  15 O15            7.1745     1.5748    -0.0604 O.2     
  16 C16            7.2655     4.2957    -0.0490 C.3     
  17 C17            7.3196     5.1740     1.2048 C.3     
  18 C18            8.5708     6.0543     1.1481 C.3     
  19 O19            8.5445     6.8410    -0.0446 O.3     
  20 C20            8.5410     6.0734    -1.2500 C.3     
  21 C21            7.2886     5.1938    -1.2896 C.3     
  22 C22            3.6424    -2.1763    -0.0442 C.3     
  23 C23            3.5087    -2.6726    -1.4608 C.ar    
  24 C24            4.6312    -2.8955    -2.2438 C.ar    
  25 C25            4.4696    -3.3512    -3.5383 C.ar    
  26 N26            3.2662    -3.5733    -4.0300 N.ar    
  27 C27            2.1770    -3.3723    -3.3147 C.ar    
  28 C28            2.2607    -2.9227    -2.0103 C.ar    
  29 O29            7.3717     4.3444     2.3672 O.3     
  30 C30            0.8253    -3.6416    -3.9243 C.3     
  31 C31            0.3709    -5.0547    -3.5534 C.3     
  32 C32           -0.1860    -2.6244    -3.3920 C.3     
  33 H33           -0.9630     1.9076     0.0169 H       
  34 H34           -0.9305    -0.5488     0.0083 H       
  35 H35            1.1786    -1.7697    -0.0183 H       
  36 H36            1.1188     3.1811     0.0081 H       
  37 H37            5.7317    -0.5451    -0.0563 H       
  38 H38            4.8132     5.2111    -0.0182 H       
  39 H39            8.1281     3.6295    -0.0650 H       
  40 H40            6.4318     5.8051     1.2460 H       
  41 H41            8.5922     6.7121     2.0170 H       
  42 H42            9.4596     5.4232     1.1477 H       
  43 H43            8.5409     6.7448    -2.1086 H       
  44 H44            9.4294     5.4425    -1.2817 H       
  45 H45            7.3062     4.5752    -2.1869 H       
  46 H46            6.4002     5.8253    -1.2987 H       
  47 H47            4.5813    -2.5336     0.3789 H       
  48 H48            2.8098    -2.5499     0.5518 H       
  49 H49            5.6193    -2.7148    -1.8471 H       
  50 H50            5.3389    -3.5273    -4.1546 H       
  51 H51            1.3649    -2.7601    -1.4294 H       
  52 H52            7.4077     4.8353     3.1995 H       
  53 H53            0.8920    -3.5543    -5.0088 H       
  54 H54            0.3042    -5.1420    -2.4689 H       
  55 H55           -0.6067    -5.2494    -3.9943 H       
  56 H56            1.0914    -5.7793    -3.9326 H       
  57 H57           -1.1636    -2.8191    -3.8329 H       
  58 H58           -0.2527    -2.7117    -2.3075 H       
  59 H59            0.1377    -1.6177    -3.6562 H       
@<TRIPOS>BOND
   1    1    2 ar
   2    1    6 ar
   3    1   33 1
   4    2    3 ar
   5    2   34 1
   6    3    4 ar
   7    3   35 1
   8    4    5 ar
   9    4    7 ar
  10    5    6 ar
  11    5   10 ar
  12    6   36 1
  13    7    8 ar
  14    7   22 1
  15    8    9 ar
  16    8   37 1
  17    9   10 ar
  18    9   11 1
  19   10   14 1
  20   11   12 am
  21   11   15 2
  22   12   13 1
  23   12   16 1
  24   13   14 2
  25   13   38 1
  26   16   17 1
  27   16   21 1
  28   16   39 1
  29   17   18 1
  30   17   29 1
  31   17   40 1
  32   18   19 1
  33   18   41 1
  34   18   42 1
  35   19   20 1
  36   20   21 1
  37   20   43 1
  38   20   44 1
  39   21   45 1
  40   21   46 1
  41   22   23 1
  42   22   47 1
  43   22   48 1
  44   23   24 ar
  45   23   28 ar
  46   24   25 ar
  47   24   49 1
  48   25   26 ar
  49   25   50 1
  50   26   27 ar
  51   27   28 ar
  52   27   30 1
  53   28   51 1
  54   29   52 1
  55   30   31 1
  56   30   32 1
  57   30   53 1
  58   31   54 1
  59   31   55 1
  60   31   56 1
  61   32   57 1
  62   32   58 1
  63   32   59 1

#	End of record

