#	Name: ASD01917217
#	Creating user name:	WinNT
#	Creation time:	15. 06. 2019 20:08

#	Modifying user name:	WinNT
#	Modification time:	15. 06. 2019 20:08

#	Program:	/corina/corina34_cracker 3.40 0067  02.08.2006

@<TRIPOS>MOLECULE
ASD01917217
  44   47    0    0    0
SMALL
NO_CHARGES


@<TRIPOS>ATOM
   1 N1            -0.1085     1.1416    -0.1477 N.pl3   
   2 C2            -0.0528    -0.2019     0.1134 C.2     
   3 C3             1.2305    -0.9347     0.1530 C.2     
   4 N4             2.2383    -0.3078     0.8090 N.am    
   5 C5             1.9312     0.8322     1.6584 C.3     
   6 C6             1.8627     2.1573     0.9008 C.3     
   7 C7             1.0702     1.9684    -0.4003 C.3     
   8 N8            -1.4509     1.5184    -0.1144 N.2     
   9 C9            -2.1800     0.4571     0.1572 C.2     
  10 C10           -1.3298    -0.6472     0.3035 C.2     
  11 O11            1.3727    -2.0253    -0.3668 O.2     
  12 C12            3.5580    -0.7520     0.6700 C.ar    
  13 C13            4.2198    -1.3154     1.7532 C.ar    
  14 C14            5.5222    -1.7532     1.6138 C.ar    
  15 C15            6.1682    -1.6307     0.3951 C.ar    
  16 C16            5.5104    -1.0688    -0.6861 C.ar    
  17 C17            4.2058    -0.6354    -0.5528 C.ar    
  18 F18            7.4423    -2.0596     0.2610 F       
  19 O19           -3.5348     0.4350     0.2732 O.3     
  20 C20           -4.2226     1.6730     0.0826 C.3     
  21 C21           -5.7045     1.4550     0.2482 C.ar    
  22 C22           -6.2878     1.5888     1.4943 C.ar    
  23 C23           -7.6471     1.3889     1.6462 C.ar    
  24 C24           -8.4233     1.0556     0.5520 C.ar    
  25 C25           -7.8402     0.9227    -0.6943 C.ar    
  26 C26           -6.4815     1.1269    -0.8470 C.ar    
  27 H27            0.9707     0.6574     2.1431 H       
  28 H28            2.6984     0.9101     2.4287 H       
  29 H29            1.3683     2.9048     1.5213 H       
  30 H30            2.8725     2.4930     0.6650 H       
  31 H31            1.7027     1.4805    -1.1419 H       
  32 H32            0.7560     2.9415    -0.7777 H       
  33 H33           -1.6282    -1.6603     0.5295 H       
  34 H34            3.7164    -1.4108     2.7039 H       
  35 H35            6.0373    -2.1910     2.4561 H       
  36 H36            6.0162    -0.9739    -1.6356 H       
  37 H37            3.6915    -0.2016    -1.3976 H       
  38 H38           -3.8773     2.3977     0.8199 H       
  39 H39           -4.0206     2.0502    -0.9199 H       
  40 H40           -5.6814     1.8492     2.3492 H       
  41 H41           -8.1027     1.4927     2.6199 H       
  42 H42           -9.4852     0.8987     0.6708 H       
  43 H43           -8.4465     0.6620    -1.5492 H       
  44 H44           -6.0265     1.0267    -1.8214 H       
@<TRIPOS>BOND
   1    1    2 1
   2    1    7 1
   3    1    8 1
   4    2    3 1
   5    2   10 2
   6    3    4 am
   7    3   11 2
   8    4    5 1
   9    4   12 1
  10    5    6 1
  11    5   27 1
  12    5   28 1
  13    6    7 1
  14    6   29 1
  15    6   30 1
  16    7   31 1
  17    7   32 1
  18    8    9 2
  19    9   10 1
  20    9   19 1
  21   10   33 1
  22   12   13 ar
  23   12   17 ar
  24   13   14 ar
  25   13   34 1
  26   14   15 ar
  27   14   35 1
  28   15   16 ar
  29   15   18 1
  30   16   17 ar
  31   16   36 1
  32   17   37 1
  33   19   20 1
  34   20   21 1
  35   20   38 1
  36   20   39 1
  37   21   22 ar
  38   21   26 ar
  39   22   23 ar
  40   22   40 1
  41   23   24 ar
  42   23   41 1
  43   24   25 ar
  44   24   42 1
  45   25   26 ar
  46   25   43 1
  47   26   44 1

#	End of record

