#	Name: ASD05720237
#	Creating user name:	WinNT
#	Creation time:	15. 06. 2019 21:02

#	Modifying user name:	WinNT
#	Modification time:	15. 06. 2019 21:02

#	Program:	/corina/corina34_cracker 3.40 0067  02.08.2006

@<TRIPOS>MOLECULE
ASD05720237
  25   25    0    0    0
SMALL
NO_CHARGES


@<TRIPOS>ATOM
   1 C1            -0.0180     1.4756     0.0102 C.2     
   2 C2             0.0021    -0.0041     0.0020 C.ar    
   3 C3             1.2187    -0.6881    -0.0133 C.ar    
   4 C4             1.2309    -2.0681    -0.0208 C.ar    
   5 C5             0.0380    -2.7739    -0.0138 C.ar    
   6 C6            -1.1710    -2.1000     0.0014 C.ar    
   7 C7            -1.1952    -0.7208     0.0154 C.ar    
   8 O8             1.0278     2.0985     0.0035 O.2     
   9 N9            -1.1929     2.1327     0.0193 N.2     
  10 C10           -1.2106     3.4444     0.0265 C.2     
  11 N11           -2.3891     4.1036     0.0357 N.pl3   
  12 C12           -3.6478     3.3539     0.0376 C.3     
  13 C13           -2.4090     5.5684     0.0437 C.3     
  14 Cl14           2.7427    -2.9213    -0.0399 Cl      
  15 Br15           0.0624    -4.6648    -0.0255 Br      
  16 H16            2.1484    -0.1386    -0.0195 H       
  17 H17           -2.0974    -2.6552     0.0069 H       
  18 H18           -2.1393    -0.1965     0.0321 H       
  19 H19           -0.2828     3.9971     0.0251 H       
  20 H20           -3.9550     3.1624     1.0657 H       
  21 H21           -4.4178     3.9354    -0.4695 H       
  22 H22           -3.5070     2.4062    -0.4821 H       
  23 H23           -1.3863     5.9457     0.0409 H       
  24 H24           -2.9319     5.9296    -0.8418 H       
  25 H25           -2.9235     5.9199     0.9381 H       
@<TRIPOS>BOND
   1    1    2 1
   2    1    8 2
   3    1    9 1
   4    2    3 ar
   5    2    7 ar
   6    3    4 ar
   7    3   16 1
   8    4    5 ar
   9    4   14 1
  10    5    6 ar
  11    5   15 1
  12    6    7 ar
  13    6   17 1
  14    7   18 1
  15    9   10 2
  16   10   11 1
  17   10   19 1
  18   11   12 1
  19   11   13 1
  20   12   20 1
  21   12   21 1
  22   12   22 1
  23   13   23 1
  24   13   24 1
  25   13   25 1

#	End of record

