#	Name: ASD07931709
#	Creating user name:	WinNT
#	Creation time:	15. 06. 2019 21:13

#	Modifying user name:	WinNT
#	Modification time:	15. 06. 2019 21:13

#	Program:	/corina/corina34_cracker 3.40 0067  02.08.2006

@<TRIPOS>MOLECULE
ASD07931709
  60   64    0    0    0
SMALL
NO_CHARGES


@<TRIPOS>ATOM
   1 C1             4.1768    -3.6112    -0.3690 C.2     
   2 C2             2.8700    -3.3150    -0.6444 C.2     
   3 C3             2.5042    -1.9237    -0.9211 C.2     
   4 N4             3.4573    -0.9758    -0.8996 N.am    
   5 C5             4.7653    -1.2990    -0.6177 C.2     
   6 C6             5.1289    -2.5844    -0.3576 C.2     
   7 C7             3.1259     0.4280    -1.1785 C.3     
   8 C8             3.9236     1.3079    -0.2046 C.3     
   9 N9             5.3564     1.0577    -0.4163 N.am    
  10 C10            5.7748    -0.2173    -0.6011 C.2     
  11 C11            6.3139     2.1664    -0.4274 C.3     
  12 O12            1.3473    -1.6285    -1.1686 O.2     
  13 N13            1.9010    -4.3221    -0.6620 N.pl3   
  14 C14            1.4903    -5.0772     0.4065 C.2     
  15 C15            1.1833    -4.7342    -1.7401 C.2     
  16 N16            0.3803    -5.6915    -1.3632 N.2     
  17 C17            0.5477    -5.9221    -0.0524 C.2     
  18 C18           -0.1917    -6.9495     0.7655 C.3     
  19 O19            6.9552    -0.4677    -0.7498 O.2     
  20 C20            5.9968     3.2439    -1.4778 C.3     
  21 C21            6.4065     4.2831    -0.4209 C.3     
  22 C22            6.0304     3.2359     0.6407 C.3     
  23 O23            6.8640     3.2094    -2.6130 O.3     
  24 C24            6.4199     3.8126    -3.7472 C.ar    
  25 C25            5.2309     4.5265    -3.7342 C.ar    
  26 C26            4.7814     5.1394    -4.8881 C.ar    
  27 C27            5.5165     5.0412    -6.0559 C.ar    
  28 C28            6.7032     4.3294    -6.0709 C.ar    
  29 C29            7.1584     3.7197    -4.9181 C.ar    
  30 Cl30           4.9494     5.8116    -7.5045 Cl      
  31 C31            7.5018     4.2236    -7.3445 C.3     
  32 C32            8.8914     4.8255    -7.1265 C.3     
  33 C33            7.6397     2.7518    -7.7393 C.3     
  34 H34            4.4713    -4.6286    -0.1577 H       
  35 H35            6.1614    -2.8146    -0.1399 H       
  36 H36            3.3986     0.6738    -2.2048 H       
  37 H37            2.0581     0.5905    -1.0316 H       
  38 H38            3.7031     2.3582    -0.3954 H       
  39 H39            3.6553     1.0550     0.8212 H       
  40 H40            7.3506     1.8301    -0.4461 H       
  41 H41            1.8533    -5.0076     1.4213 H       
  42 H42            1.2639    -4.3360    -2.7408 H       
  43 H43            0.3565    -7.8914     0.7474 H       
  44 H44           -0.2799    -6.6001     1.7942 H       
  45 H45           -1.1866    -7.1001     0.3464 H       
  46 H46            4.9425     3.2908    -1.7505 H       
  47 H47            7.4689     4.5265    -0.4368 H       
  48 H48            5.7688     5.1669    -0.4074 H       
  49 H49            4.9853     3.2806     0.9471 H       
  50 H50            6.7191     3.2032     1.4849 H       
  51 H51            4.6565     4.6031    -2.8228 H       
  52 H52            3.8554     5.6951    -4.8784 H       
  53 H53            8.0848     3.1646    -4.9301 H       
  54 H54            6.9912     4.7668    -8.1397 H       
  55 H55            9.4691     4.7490    -8.0477 H       
  56 H56            8.7932     5.8740    -6.8453 H       
  57 H57            9.4020     4.2823    -6.3313 H       
  58 H58            6.6497     2.3230    -7.8946 H       
  59 H59            8.2173     2.6753    -8.6605 H       
  60 H60            8.1502     2.2086    -6.9441 H       
@<TRIPOS>BOND
   1    1    2 2
   2    1    6 1
   3    1   34 1
   4    2    3 1
   5    2   13 1
   6    3    4 am
   7    3   12 2
   8    4    5 1
   9    4    7 1
  10    5    6 2
  11    5   10 1
  12    6   35 1
  13    7    8 1
  14    7   36 1
  15    7   37 1
  16    8    9 1
  17    8   38 1
  18    8   39 1
  19    9   10 am
  20    9   11 1
  21   10   19 2
  22   11   20 1
  23   11   22 1
  24   11   40 1
  25   13   14 1
  26   13   15 1
  27   14   17 2
  28   14   41 1
  29   15   16 2
  30   15   42 1
  31   16   17 1
  32   17   18 1
  33   18   43 1
  34   18   44 1
  35   18   45 1
  36   20   21 1
  37   20   23 1
  38   20   46 1
  39   21   22 1
  40   21   47 1
  41   21   48 1
  42   22   49 1
  43   22   50 1
  44   23   24 1
  45   24   25 ar
  46   24   29 ar
  47   25   26 ar
  48   25   51 1
  49   26   27 ar
  50   26   52 1
  51   27   28 ar
  52   27   30 1
  53   28   29 ar
  54   28   31 1
  55   29   53 1
  56   31   32 1
  57   31   33 1
  58   31   54 1
  59   32   55 1
  60   32   56 1
  61   32   57 1
  62   33   58 1
  63   33   59 1
  64   33   60 1

#	End of record

