#	Name: ASD01880214
#	Creating user name:	WinNT
#	Creation time:	15. 06. 2019 19:40

#	Modifying user name:	WinNT
#	Modification time:	15. 06. 2019 19:40

#	Program:	/corina/corina34_cracker 3.40 0067  02.08.2006

@<TRIPOS>MOLECULE
ASD01880214
  44   46    0    0    0
SMALL
NO_CHARGES


@<TRIPOS>ATOM
   1 C1             0.8370     1.4486    -0.1075 C.3     
   2 C2             0.6286    -0.0437    -0.0843 C.ar    
   3 C3             0.8510    -0.7535     1.0812 C.ar    
   4 C4             0.6607    -2.1216     1.1052 C.ar    
   5 C5             0.2460    -2.7832    -0.0415 C.ar    
   6 C6             0.0235    -2.0687    -1.2097 C.ar    
   7 C7             0.2098    -0.7000    -1.2269 C.ar    
   8 O8             0.0585    -4.1290    -0.0207 O.3     
   9 C9             0.1908    -4.7830     1.2430 C.3     
  10 N10            2.2225     1.7424    -0.4822 N.am    
  11 C11            2.7140     1.9403    -1.8544 C.3     
  12 C12            4.2188     2.2152    -1.6691 C.3     
  13 O13            4.4154     2.1442    -0.2272 O.3     
  14 C14            3.2476     1.8804     0.3697 C.2     
  15 C15            5.0509     1.1443    -2.3773 C.3     
  16 O16            3.1289     1.7680     1.5738 O.2     
  17 C17           -0.6227    -6.0788     1.2344 C.3     
  18 C18           -0.4811    -6.7789     2.5874 C.3     
  19 C19            0.9923    -7.1034     2.8419 C.3     
  20 C20            1.8058    -5.8077     2.8505 C.3     
  21 C21            1.6642    -5.1075     1.4975 C.3     
  22 H22            0.1608     1.8986    -0.8344 H       
  23 H23            0.6331     1.8594     0.8813 H       
  24 H24            1.1742    -0.2381     1.9736 H       
  25 H25            0.8349    -2.6756     2.0157 H       
  26 H26           -0.2994    -2.5815    -2.1037 H       
  27 H27            0.0367    -0.1433    -2.1361 H       
  28 H28           -0.1784    -4.1275     2.0317 H       
  29 H29            2.5596     1.0405    -2.4499 H       
  30 H30            2.2226     2.7960    -2.3174 H       
  31 H31            4.4746     3.2073    -2.0412 H       
  32 H32            4.8188     1.1491    -3.4423 H       
  33 H33            6.1109     1.3550    -2.2355 H       
  34 H34            4.8158     0.1657    -1.9586 H       
  35 H35           -1.6724    -5.8476     1.0530 H       
  36 H36           -0.2536    -6.7343     0.4456 H       
  37 H37           -0.8502    -6.1234     3.3761 H       
  38 H38           -1.0606    -7.7020     2.5812 H       
  39 H39            1.0932    -7.6022     3.8058 H       
  40 H40            1.3615    -7.7590     2.0531 H       
  41 H41            1.4367    -5.1521     3.6393 H       
  42 H42            2.8555    -6.0389     3.0318 H       
  43 H43            2.0333    -5.7630     0.7088 H       
  44 H44            2.2437    -4.1844     1.5037 H       
@<TRIPOS>BOND
   1    1    2 1
   2    1   10 1
   3    1   22 1
   4    1   23 1
   5    2    3 ar
   6    2    7 ar
   7    3    4 ar
   8    3   24 1
   9    4    5 ar
  10    4   25 1
  11    5    6 ar
  12    5    8 1
  13    6    7 ar
  14    6   26 1
  15    7   27 1
  16    8    9 1
  17    9   17 1
  18    9   21 1
  19    9   28 1
  20   10   11 1
  21   10   14 am
  22   11   12 1
  23   11   29 1
  24   11   30 1
  25   12   13 1
  26   12   15 1
  27   12   31 1
  28   13   14 1
  29   14   16 2
  30   15   32 1
  31   15   33 1
  32   15   34 1
  33   17   18 1
  34   17   35 1
  35   17   36 1
  36   18   19 1
  37   18   37 1
  38   18   38 1
  39   19   20 1
  40   19   39 1
  41   19   40 1
  42   20   21 1
  43   20   41 1
  44   20   42 1
  45   21   43 1
  46   21   44 1

#	End of record

