#	Name: ASD01028594
#	Creating user name:	WinNT
#	Creation time:	15. 06. 2019 18:57

#	Modifying user name:	WinNT
#	Modification time:	15. 06. 2019 18:57

#	Program:	/corina/corina34_cracker 3.40 0067  02.08.2006

@<TRIPOS>MOLECULE
ASD01028594
  58   63    0    0    0
SMALL
NO_CHARGES


@<TRIPOS>ATOM
   1 N1            -0.0169     1.3921     0.0097 N.2     
   2 N2             0.0021    -0.0041     0.0020 N.pl3   
   3 C3             1.1071     2.0741     0.0026 C.2     
   4 C4             2.3532     1.4124    -0.0128 C.2     
   5 C5             2.4037     0.0542    -0.0211 C.2     
   6 C6             1.2008    -0.6771    -0.0130 C.2     
   7 N7             0.9145    -1.9687    -0.0175 N.2     
   8 N8            -0.3638    -2.1208    -0.0054 N.2     
   9 C9            -0.9586    -0.9539     0.0057 C.2     
  10 C10           -2.4463    -0.7141     0.0218 C.3     
  11 N11           -2.9145    -0.6429     1.4081 N.pl3   
  12 C12           -4.2584    -0.4271     1.6762 C.ar    
  13 C13           -5.1755    -0.2761     0.6493 C.ar    
  14 C14           -6.5146    -0.0610     0.9467 C.ar    
  15 N15           -6.9449     0.0050     2.1853 N.ar    
  16 C16           -6.1147    -0.1321     3.2245 C.ar    
  17 C17           -4.7352    -0.3603     3.0088 C.ar    
  18 C18            1.0647     3.5571     0.0105 C.ar    
  19 C19           -0.1602     4.2210     0.0253 C.ar    
  20 C20            2.2496     4.2900     0.0089 C.ar    
  21 C21           -0.1950     5.6031     0.0325 C.ar    
  22 C22            2.2053     5.6718     0.0162 C.ar    
  23 C23            0.9854     6.3277     0.0251 C.ar    
  24 F24            3.3537     6.3835     0.0151 F       
  25 F25           -1.3821     6.2479     0.0464 F       
  26 C26           -6.5901    -0.0595     4.5471 C.ar    
  27 C27           -5.6893    -0.2082     5.5686 C.ar    
  28 C28           -4.3381    -0.4255     5.2793 C.ar    
  29 N29           -3.9059    -0.4985     4.0442 N.ar    
  30 O30           -6.1074    -0.1444     6.8596 O.3     
  31 C31           -5.1128    -0.3083     7.8725 C.3     
  32 C32           -5.7676    -0.2064     9.2515 C.3     
  33 N33           -6.2775     1.1626     9.4793 N.3     
  34 C34           -6.0648     1.5132    10.8956 C.3     
  35 C35           -5.3683     0.3096    11.5649 C.3     
  36 C36           -4.7147    -0.4269    10.3661 C.3     
  37 H37            3.2683     1.9860    -0.0185 H       
  38 H38            3.3547    -0.4576    -0.0336 H       
  39 H39           -2.6685     0.2247    -0.4854 H       
  40 H40           -2.9518    -1.5325    -0.4908 H       
  41 H41           -2.2848    -0.7467     2.1386 H       
  42 H42           -4.8500    -0.3251    -0.3793 H       
  43 H43           -7.2207     0.0553     0.1378 H       
  44 H44           -1.0811     3.6569     0.0307 H       
  45 H45            3.2013     3.7794     0.0023 H       
  46 H46            0.9546     7.4072     0.0308 H       
  47 H47           -7.6371     0.1093     4.7513 H       
  48 H48           -3.6363    -0.5415     6.0919 H       
  49 H49           -4.6423    -1.2856     7.7650 H       
  50 H50           -4.3580     0.4715     7.7701 H       
  51 H51           -6.5758    -0.9322     9.3416 H       
  52 H52           -5.8205     1.8246     8.8703 H       
  53 H53           -5.4297     2.3962    10.9677 H       
  54 H54           -7.0233     1.7026    11.3787 H       
  55 H55           -4.6090     0.6472    12.2703 H       
  56 H56           -6.0979    -0.3314    12.0598 H       
  57 H57           -4.5899    -1.4882    10.5809 H       
  58 H58           -3.7619     0.0305    10.0993 H       
@<TRIPOS>BOND
   1    1    2 1
   2    1    3 2
   3    2    6 1
   4    2    9 1
   5    3    4 1
   6    3   18 1
   7    4    5 2
   8    4   37 1
   9    5    6 1
  10    5   38 1
  11    6    7 2
  12    7    8 1
  13    8    9 2
  14    9   10 1
  15   10   11 1
  16   10   39 1
  17   10   40 1
  18   11   12 1
  19   11   41 1
  20   12   13 ar
  21   12   17 ar
  22   13   14 ar
  23   13   42 1
  24   14   15 ar
  25   14   43 1
  26   15   16 ar
  27   16   17 ar
  28   16   26 ar
  29   17   29 ar
  30   18   19 ar
  31   18   20 ar
  32   19   21 ar
  33   19   44 1
  34   20   22 ar
  35   20   45 1
  36   21   25 1
  37   21   23 ar
  38   22   23 ar
  39   22   24 1
  40   23   46 1
  41   26   27 ar
  42   26   47 1
  43   27   28 ar
  44   27   30 1
  45   28   29 ar
  46   28   48 1
  47   30   31 1
  48   31   32 1
  49   31   49 1
  50   31   50 1
  51   32   33 1
  52   32   36 1
  53   32   51 1
  54   33   34 1
  55   33   52 1
  56   34   35 1
  57   34   53 1
  58   34   54 1
  59   35   36 1
  60   35   55 1
  61   35   56 1
  62   36   57 1
  63   36   58 1

#	End of record

