#	Name: ASD03180095
#	Creating user name:	WinNT
#	Creation time:	15. 06. 2019 20:33

#	Modifying user name:	WinNT
#	Modification time:	15. 06. 2019 20:33

#	Program:	/corina/corina34_cracker 3.40 0067  02.08.2006

@<TRIPOS>MOLECULE
ASD03180095
  37   39    0    0    0
SMALL
NO_CHARGES


@<TRIPOS>ATOM
   1 N1            -0.0158     1.3164     0.0093 N.2     
   2 C2             0.0021    -0.0041     0.0020 C.2     
   3 C3             1.2223    -0.5423    -0.0125 C.2     
   4 S4             2.3985     0.7693    -0.0167 S.3     
   5 C5             1.1328     1.9185     0.0015 C.2     
   6 C6             1.5397    -2.0154    -0.0230 C.3     
   7 C7             1.6317    -2.4993    -1.4472 C.2     
   8 O8             1.9072    -3.7882    -1.7017 O.3     
   9 O9             1.4574    -1.7272    -2.3601 O.2     
  10 N10            1.3088     3.2948     0.0068 N.pl3   
  11 C11            0.2056     4.1348     0.0219 C.2     
  12 S12           -1.4741     3.6067     0.0363 S.3     
  13 C13           -2.0058     5.2864     0.0503 C.2     
  14 C14           -0.9151     6.0749     0.0433 C.2     
  15 N15            0.2516     5.4311     0.0333 N.2     
  16 C16           -1.0050     7.5513     0.0513 C.2     
  17 N17           -0.3134     9.6803     0.0506 N.2     
  18 C18            0.0355     8.4118     0.0397 C.2     
  19 S19           -2.4890     8.5010     0.0700 S.3     
  20 C20           -1.5760     9.9463     0.0683 C.2     
  21 C21            1.4725     7.9583     0.0167 C.3     
  22 C22           -2.1626    11.3344     0.0834 C.3     
  23 C23            1.9803    -4.1836    -3.0969 C.3     
  24 H24           -0.8986    -0.6000     0.0074 H       
  25 H25            2.4911    -2.1858     0.4808 H       
  26 H26            0.7512    -2.5607     0.4957 H       
  27 H27            2.2036     3.6693    -0.0000 H       
  28 H28           -3.0312     5.6252     0.0625 H       
  29 H29            1.8340     7.8446     1.0386 H       
  30 H30            1.5435     7.0024    -0.5023 H       
  31 H31            2.0792     8.6999    -0.5030 H       
  32 H32           -2.3177    11.6744    -0.9406 H       
  33 H33           -3.1169    11.3199     0.6099 H       
  34 H34           -1.4775    12.0128     0.5917 H       
  35 H35            1.0235    -3.9876    -3.5808 H       
  36 H36            2.7635    -3.6127    -3.5958 H       
  37 H37            2.2090    -5.2474    -3.1615 H       
@<TRIPOS>BOND
   1    1    2 1
   2    1    5 2
   3    2    3 2
   4    2   24 1
   5    3    4 1
   6    3    6 1
   7    4    5 1
   8    5   10 1
   9    6    7 1
  10    6   25 1
  11    6   26 1
  12    7    8 1
  13    7    9 2
  14    8   23 1
  15   10   11 1
  16   10   27 1
  17   11   12 1
  18   11   15 2
  19   12   13 1
  20   13   14 2
  21   13   28 1
  22   14   15 1
  23   14   16 1
  24   16   19 1
  25   16   18 2
  26   17   18 1
  27   17   20 2
  28   18   21 1
  29   19   20 1
  30   20   22 1
  31   21   29 1
  32   21   30 1
  33   21   31 1
  34   22   32 1
  35   22   33 1
  36   22   34 1
  37   23   35 1
  38   23   36 1
  39   23   37 1

#	End of record

