#	Name: ASD01917227
#	Creating user name:	WinNT
#	Creation time:	15. 06. 2019 20:08

#	Modifying user name:	WinNT
#	Modification time:	15. 06. 2019 20:08

#	Program:	/corina/corina34_cracker 3.40 0067  02.08.2006

@<TRIPOS>MOLECULE
ASD01917227
  51   54    0    0    0
SMALL
NO_CHARGES


@<TRIPOS>ATOM
   1 C1            -0.0171     1.4084     0.0098 C.ar    
   2 C2             0.0021    -0.0041     0.0020 C.ar    
   3 C3            -1.1925    -0.7196     0.0400 C.ar    
   4 C4            -2.3902    -0.0393     0.0716 C.ar    
   5 C5            -2.4136     1.3494     0.0659 C.ar    
   6 C6            -1.2441     2.0748     0.0361 C.ar    
   7 N7             1.1593     2.0732     0.0021 N.2     
   8 C8             2.3195     1.4657    -0.0392 C.2     
   9 N9             2.4203     0.1177    -0.1560 N.am    
  10 C10            1.3102    -0.6646    -0.0612 C.2     
  11 C11           -3.7362     2.0712     0.0928 C.3     
  12 O12            1.4007    -1.8781    -0.0293 O.2     
  13 C13           -4.1510     2.3219     1.5440 C.3     
  14 C14            3.5352     2.3436     0.1019 C.3     
  15 C15            4.7917     1.6909    -0.4307 C.3     
  16 C16            4.8967     0.2349    -0.0255 C.3     
  17 C17            3.6799    -0.5639    -0.4341 C.3     
  18 C18            6.1350    -0.3754    -0.6852 C.3     
  19 C19            5.0563     0.1533     1.4939 C.3     
  20 C20           -5.4939     3.0547     1.5712 C.3     
  21 C21           -5.9024     3.3017     3.0006 C.ar    
  22 N22           -5.9796     2.2883     3.8406 N.ar    
  23 C23           -6.3328     2.4569     5.1001 C.ar    
  24 C24           -6.6373     3.7139     5.5866 C.ar    
  25 C25           -6.5673     4.8042     4.7327 C.ar    
  26 C26           -6.1865     4.5887     3.4173 C.ar    
  27 H27           -1.1799    -1.7995     0.0441 H       
  28 H28           -3.3185    -0.5905     0.1008 H       
  29 H29           -1.2753     3.1544     0.0327 H       
  30 H30           -3.6407     3.0241    -0.4276 H       
  31 H31           -4.4929     1.4616    -0.4013 H       
  32 H32           -4.2466     1.3689     2.0644 H       
  33 H33           -3.3944     2.9314     2.0380 H       
  34 H34            3.3635     3.2725    -0.4420 H       
  35 H35            3.6800     2.5773     1.1566 H       
  36 H36            4.7901     1.7560    -1.5188 H       
  37 H37            5.6591     2.2282    -0.0472 H       
  38 H38            3.6891    -1.5133     0.1012 H       
  39 H39            3.7384    -0.7678    -1.5033 H       
  40 H40            7.0240     0.1632    -0.3573 H       
  41 H41            6.2193    -1.4239    -0.3995 H       
  42 H42            6.0436    -0.3003    -1.7688 H       
  43 H43            4.1904     0.6080     1.9751 H       
  44 H44            5.1328    -0.8914     1.7956 H       
  45 H45            5.9594     0.6850     1.7935 H       
  46 H46           -5.3983     4.0077     1.0508 H       
  47 H47           -6.2505     2.4452     1.0772 H       
  48 H48           -6.3849     1.6026     5.7588 H       
  49 H49           -6.9265     3.8454     6.6188 H       
  50 H50           -6.8000     5.7982     5.0851 H       
  51 H51           -6.1209     5.4147     2.7246 H       
@<TRIPOS>BOND
   1    1    2 ar
   2    1    7 1
   3    1    6 ar
   4    2    3 ar
   5    2   10 1
   6    3    4 ar
   7    3   27 1
   8    4    5 ar
   9    4   28 1
  10    5    6 ar
  11    5   11 1
  12    6   29 1
  13    7    8 2
  14    8    9 1
  15    8   14 1
  16    9   10 am
  17    9   17 1
  18   10   12 2
  19   11   13 1
  20   11   30 1
  21   11   31 1
  22   13   20 1
  23   13   32 1
  24   13   33 1
  25   14   15 1
  26   14   34 1
  27   14   35 1
  28   15   16 1
  29   15   36 1
  30   15   37 1
  31   16   17 1
  32   16   18 1
  33   16   19 1
  34   17   38 1
  35   17   39 1
  36   18   40 1
  37   18   41 1
  38   18   42 1
  39   19   43 1
  40   19   44 1
  41   19   45 1
  42   20   21 1
  43   20   46 1
  44   20   47 1
  45   21   22 ar
  46   21   26 ar
  47   22   23 ar
  48   23   24 ar
  49   23   48 1
  50   24   25 ar
  51   24   49 1
  52   25   26 ar
  53   25   50 1
  54   26   51 1

#	End of record

