#	Name: ASD01900063
#	Creating user name:	WinNT
#	Creation time:	15. 06. 2019 19:51

#	Modifying user name:	WinNT
#	Modification time:	15. 06. 2019 19:51

#	Program:	/corina/corina34_cracker 3.40 0067  02.08.2006

@<TRIPOS>MOLECULE
ASD01900063
  70   72    0    0    0
SMALL
NO_CHARGES


@<TRIPOS>ATOM
   1 C1            -0.0184     1.5086     0.0103 C.3     
   2 C2             0.0021    -0.0041     0.0020 C.2     
   3 N3             1.2166    -0.4479    -0.3652 N.am    
   4 C4             2.1282     0.6667    -0.6490 C.3     
   5 C5             1.4753     1.9081    -0.0018 C.3     
   6 O6            -0.9400    -0.7131     0.2861 O.2     
   7 C7             3.4783     0.4062    -0.0322 C.2     
   8 C8            -0.7254     2.0414    -1.2375 C.3     
   9 C9            -2.1839     1.6654    -1.1877 C.2     
  10 C10           -3.1033     2.5929    -1.2907 C.2     
  11 C11           -4.5618     2.2169    -1.2409 C.3     
  12 N12           -5.2288     2.9866    -0.1878 N.pl3   
  13 C13           -5.8270     4.2873    -0.4984 C.3     
  14 C14           -5.2942     2.4817     1.1088 C.ar    
  15 C15           -7.2838     4.0905    -0.9226 C.3     
  16 C16           -4.7828     0.7461     2.6834 C.ar    
  17 C17           -4.7203     1.2485     1.4032 C.ar    
  18 C18           -5.9283     3.2144     2.1078 C.ar    
  19 C19           -5.9942     2.7192     3.3906 C.ar    
  20 C20           -5.4232     1.4776     3.6892 C.ar    
  21 N21           -5.4873     0.9828     4.9598 N.2     
  22 N22           -6.0781     1.6587     5.8862 N.2     
  23 C23           -6.1422     1.1639     7.1568 C.ar    
  24 C24           -5.6290    -0.5686     8.7403 C.ar    
  25 C25           -5.5627    -0.0732     7.4576 C.ar    
  26 C26           -6.7825     1.8954     8.1627 C.ar    
  27 C27           -6.8447     1.3933     9.4429 C.ar    
  28 C28           -6.2715     0.1597     9.7371 C.ar    
  29 N29           -6.3373    -0.3455    11.0337 N.pl3   
  30 C30           -7.0132     0.4196    12.0844 C.3     
  31 C31           -5.7306    -1.6417    11.3465 C.3     
  32 C32           -4.2766    -1.4342    11.7751 C.3     
  33 C33           -8.4913     0.0271    12.1305 C.3     
  34 Cl34          -9.3231     0.9686    13.4237 Cl      
  35 O35            3.5921    -0.4129     0.8487 O.2     
  36 O36            4.5543     1.0841    -0.4615 O.3     
  37 H37           -0.5050     1.8785     0.9128 H       
  38 H38            1.4594    -1.3846    -0.4336 H       
  39 H39            2.2256     0.8097    -1.7252 H       
  40 H40            1.6365     2.7966    -0.6123 H       
  41 H41            1.8466     2.0604     1.0117 H       
  42 H42           -0.6310     3.1267    -1.2731 H       
  43 H43           -0.2686     1.6076    -2.1271 H       
  44 H44           -2.4712     0.6313    -1.0670 H       
  45 H45           -2.8160     3.6270    -1.4114 H       
  46 H46           -5.0268     2.4370    -2.2018 H       
  47 H47           -4.6554     1.1521    -1.0273 H       
  48 H48           -5.7887     4.9251     0.3847 H       
  49 H49           -5.2726     4.7576    -1.3106 H       
  50 H50           -7.3221     3.4527    -1.8057 H       
  51 H51           -7.8383     3.6202    -0.1104 H       
  52 H52           -7.7289     5.0582    -1.1537 H       
  53 H53           -4.3376    -0.2111     2.9110 H       
  54 H54           -4.2255     0.6846     0.6262 H       
  55 H55           -6.3689     4.1729     1.8764 H       
  56 H56           -6.4858     3.2887     4.1654 H       
  57 H57           -5.1818    -1.5237     8.9733 H       
  58 H58           -5.0642    -0.6391     6.6845 H       
  59 H59           -7.2272     2.8529     7.9352 H       
  60 H60           -7.3385     1.9576    10.2201 H       
  61 H61           -6.5496     0.2030    13.0469 H       
  62 H62           -6.9267     1.4849    11.8710 H       
  63 H63           -6.2842    -2.1159    12.1569 H       
  64 H64           -5.7615    -2.2799    10.4633 H       
  65 H65           -4.2457    -0.7960    12.6582 H       
  66 H66           -3.8252    -2.3986    12.0078 H       
  67 H67           -3.7231    -0.9600    10.9646 H       
  68 H68           -8.9549     0.2436    11.1681 H       
  69 H69           -8.5778    -1.0383    12.3440 H       
  70 H70            5.3988     0.8826    -0.0356 H       
@<TRIPOS>BOND
   1    1    2 1
   2    1    5 1
   3    1    8 1
   4    1   37 1
   5    2    3 am
   6    2    6 2
   7    3    4 1
   8    3   38 1
   9    4    5 1
  10    4    7 1
  11    4   39 1
  12    5   40 1
  13    5   41 1
  14    7   35 2
  15    7   36 1
  16    8    9 1
  17    8   42 1
  18    8   43 1
  19    9   10 2
  20    9   44 1
  21   10   11 1
  22   10   45 1
  23   11   12 1
  24   11   46 1
  25   11   47 1
  26   12   13 1
  27   12   14 1
  28   13   15 1
  29   13   48 1
  30   13   49 1
  31   14   18 ar
  32   14   17 ar
  33   15   50 1
  34   15   51 1
  35   15   52 1
  36   16   17 ar
  37   16   20 ar
  38   16   53 1
  39   17   54 1
  40   18   19 ar
  41   18   55 1
  42   19   20 ar
  43   19   56 1
  44   20   21 1
  45   21   22 2
  46   22   23 1
  47   23   26 ar
  48   23   25 ar
  49   24   25 ar
  50   24   28 ar
  51   24   57 1
  52   25   58 1
  53   26   27 ar
  54   26   59 1
  55   27   28 ar
  56   27   60 1
  57   28   29 1
  58   29   30 1
  59   29   31 1
  60   30   33 1
  61   30   61 1
  62   30   62 1
  63   31   32 1
  64   31   63 1
  65   31   64 1
  66   32   65 1
  67   32   66 1
  68   32   67 1
  69   33   34 1
  70   33   68 1
  71   33   69 1
  72   36   70 1

#	End of record

