#	Name: ASD01900654
#	Creating user name:	WinNT
#	Creation time:	15. 06. 2019 19:52

#	Modifying user name:	WinNT
#	Modification time:	15. 06. 2019 19:52

#	Program:	/corina/corina34_cracker 3.40 0067  02.08.2006

@<TRIPOS>MOLECULE
ASD01900654
  46   50    0    0    0
SMALL
NO_CHARGES


@<TRIPOS>ATOM
   1 C1             0.1413     1.1017    -0.2351 C.ar    
   2 C2             0.0586    -0.2615     0.0291 C.ar    
   3 C3            -1.1682    -0.8842     0.1321 C.ar    
   4 C4            -2.3369    -0.1513    -0.0281 C.ar    
   5 C5            -2.2522     1.2214    -0.2984 C.ar    
   6 O6            -3.5429    -0.7503     0.0822 O.3     
   7 C7            -4.6690    -0.1582    -0.3508 C.2     
   8 C8            -4.7394     1.1636    -0.6359 C.2     
   9 C9            -3.5185     1.9763    -0.4781 C.2     
  10 C10           -5.8809    -0.9840    -0.5224 C.ar    
  11 N11           -7.0082    -0.4097    -0.9521 N.ar    
  12 C12           -8.1199    -1.0793    -1.1276 C.ar    
  13 C13           -8.1650    -2.4593    -0.8625 C.ar    
  14 C14           -6.9877    -3.1082    -0.4039 C.ar    
  15 C15           -5.8238    -2.3398    -0.2397 C.ar    
  16 C16           -9.3377    -3.2092    -1.0378 C.ar    
  17 C17           -9.3291    -4.5442    -0.7664 C.ar    
  18 C18           -8.1737    -5.1800    -0.3161 C.ar    
  19 C19           -7.0162    -4.4851    -0.1343 C.ar    
  20 C20           -1.0171     1.8480    -0.3942 C.ar    
  21 N21            1.3918     1.7208    -0.3345 N.3     
  22 C22            1.3555     3.0797     0.2365 C.3     
  23 C23            2.4385     3.1435     1.3340 C.3     
  24 C24            3.4080     1.9999     0.9352 C.3     
  25 C25            2.4275     0.9397     0.3747 C.3     
  26 N26           -3.5495     3.2867    -0.4943 N.2     
  27 O27           -2.3790     4.0263    -0.1975 O.3     
  28 H28            0.9633    -0.8379     0.1543 H       
  29 H29           -1.2198    -1.9433     0.3373 H       
  30 H30           -5.6641     1.6106    -0.9697 H       
  31 H31           -9.0055    -0.5694    -1.4770 H       
  32 H32           -4.9070    -2.7934     0.1068 H       
  33 H33          -10.2416    -2.7311    -1.3854 H       
  34 H34          -10.2331    -5.1194    -0.9021 H       
  35 H35           -8.1963    -6.2396    -0.1081 H       
  36 H36           -6.1275    -4.9898     0.2148 H       
  37 H37           -0.9585     2.9067    -0.5994 H       
  38 H38            1.5705     3.8140    -0.5398 H       
  39 H39            0.3750     3.2731     0.6716 H       
  40 H40            2.9497     4.1061     1.3155 H       
  41 H41            2.0039     2.9556     2.3157 H       
  42 H42            4.1067     2.3305     0.1666 H       
  43 H43            3.9403     1.6177     1.8062 H       
  44 H44            1.9810     0.3681     1.1883 H       
  45 H45            2.9429     0.2752    -0.3188 H       
  46 H46           -2.4996     4.9851    -0.2346 H       
@<TRIPOS>BOND
   1    1    2 ar
   2    1   21 1
   3    1   20 ar
   4    2    3 ar
   5    2   28 1
   6    3    4 ar
   7    3   29 1
   8    4    5 ar
   9    4    6 1
  10    5   20 ar
  11    5    9 1
  12    6    7 1
  13    7    8 2
  14    7   10 1
  15    8    9 1
  16    8   30 1
  17    9   26 2
  18   10   11 ar
  19   10   15 ar
  20   11   12 ar
  21   12   13 ar
  22   12   31 1
  23   13   14 ar
  24   13   16 ar
  25   14   15 ar
  26   14   19 ar
  27   15   32 1
  28   16   17 ar
  29   16   33 1
  30   17   18 ar
  31   17   34 1
  32   18   19 ar
  33   18   35 1
  34   19   36 1
  35   20   37 1
  36   21   22 1
  37   21   25 1
  38   22   23 1
  39   22   38 1
  40   22   39 1
  41   23   24 1
  42   23   40 1
  43   23   41 1
  44   24   25 1
  45   24   42 1
  46   24   43 1
  47   25   44 1
  48   25   45 1
  49   26   27 1
  50   27   46 1

#	End of record

