#	Name: ASD01010024
#	Creating user name:	WinNT
#	Creation time:	15. 06. 2019 18:56

#	Modifying user name:	WinNT
#	Modification time:	15. 06. 2019 18:56

#	Program:	/corina/corina34_cracker 3.40 0067  02.08.2006

@<TRIPOS>MOLECULE
ASD01010024
  16   16    0    0    0
SMALL
NO_CHARGES


@<TRIPOS>ATOM
   1 C1            -0.0179     1.4690     0.0101 C.2     
   2 C2             0.0021    -0.0041     0.0020 C.ar    
   3 C3             0.0232    -0.7157     1.2100 C.ar    
   4 O4             0.0254    -0.0506     2.3926 O.3     
   5 C5             0.0414    -2.1027     1.1909 C.ar    
   6 C6             0.0388    -2.7798    -0.0141 C.ar    
   7 C7             0.0179    -2.0817    -1.2106 C.ar    
   8 C8            -0.0058    -0.7011    -1.2107 C.ar    
   9 O9             1.0261     2.0909     0.0035 O.2     
  10 O10           -1.1940     2.1269     0.0193 O.3     
  11 Cl11          -0.0385     0.1680    -2.7131 Cl      
  12 Cl12           0.0154    -2.9463    -2.7159 Cl      
  13 Cl13           0.0682    -2.9895     2.6830 Cl      
  14 H14           -0.8573     0.1302     2.7438 H       
  15 H15            0.0534    -3.8597    -0.0230 H       
  16 H16           -1.1565     3.0932     0.0243 H       
@<TRIPOS>BOND
   1    1    2 1
   2    1    9 2
   3    1   10 1
   4    2    3 ar
   5    2    8 ar
   6    3    4 1
   7    3    5 ar
   8    4   14 1
   9    5    6 ar
  10    5   13 1
  11    6    7 ar
  12    6   15 1
  13    7    8 ar
  14    7   12 1
  15    8   11 1
  16   10   16 1

#	End of record

