#	Name: ASD03730305
#	Creating user name:	WinNT
#	Creation time:	15. 06. 2019 20:44

#	Modifying user name:	WinNT
#	Modification time:	15. 06. 2019 20:44

#	Program:	/corina/corina34_cracker 3.40 0067  02.08.2006

@<TRIPOS>MOLECULE
ASD03730305
  71   77    0    0    0
SMALL
NO_CHARGES


@<TRIPOS>ATOM
   1 O1            -0.4718     1.1439     1.3346 O.3     
   2 C2            -0.4042    -0.2924     1.4096 C.3     
   3 O3             0.6733    -0.6311     0.5165 O.3     
   4 C4             1.4949     0.4597     0.5050 C.ar    
   5 C5             0.7892     1.5516     1.0052 C.ar    
   6 C6             2.8099     0.6113     0.1038 C.ar    
   7 C7             3.4353     1.8514     0.1910 C.ar    
   8 C8             2.7161     2.9379     0.6797 C.ar    
   9 C9             1.4074     2.7879     1.0886 C.ar    
  10 O10            4.7125     2.2077    -0.1281 O.3     
  11 C11            3.6393     4.1252     0.6199 C.3     
  12 C12            4.7814     3.6383    -0.2824 C.3     
  13 N13            3.0717     6.3071     0.9929 N.am    
  14 C14            2.9637     5.3429     0.0573 C.2     
  15 C15            4.1330     4.5353     1.9752 C.ar    
  16 C16            4.8276     3.8791     2.9822 C.ar    
  17 C17            5.1467     4.5566     4.1587 C.ar    
  18 C18            4.7691     5.8758     4.3132 C.ar    
  19 C19            4.0784     6.5271     3.3114 C.ar    
  20 C20            3.7531     5.8638     2.1296 C.ar    
  21 O21            2.4262     5.4394    -1.0257 O.2     
  22 C22            2.5371     7.6621     0.8365 C.3     
  23 C23            1.1022     7.7084     1.3653 C.3     
  24 C24            0.5438     9.1235     1.2019 C.3     
  25 C25           -0.8911     9.1698     1.7308 C.3     
  26 C26           -1.4495    10.5848     1.5674 C.3     
  27 C27            5.2287     2.4614     2.8076 C.ar    
  28 C28            4.7077     1.4795     3.6488 C.ar    
  29 C29            5.0824     0.1619     3.4836 C.ar    
  30 C30            5.9784    -0.1859     2.4801 C.ar    
  31 C31            6.4982     0.7900     1.6416 C.ar    
  32 C32            6.1226     2.1081     1.7987 C.ar    
  33 Cl33           4.4344    -1.0620     4.5304 Cl      
  34 O34            6.3466    -1.4842     2.3198 O.3     
  35 C35            7.2712    -1.7713     1.2687 C.3     
  36 C36            7.5599    -3.2501     1.2436 C.ar    
  37 C37            6.7800    -4.0937     0.4748 C.ar    
  38 C38            7.0448    -5.4502     0.4518 C.ar    
  39 C39            8.0898    -5.9632     1.1973 C.ar    
  40 C40            8.8703    -5.1195     1.9654 C.ar    
  41 C41            8.6081    -3.7624     1.9850 C.ar    
  42 H42           -0.1743    -0.6125     2.4259 H       
  43 H43           -1.3387    -0.7381     1.0688 H       
  44 H44            3.3552    -0.2386    -0.2793 H       
  45 H45            0.8632     3.6371     1.4747 H       
  46 H46            5.7407     4.0196     0.0675 H       
  47 H47            4.6047     3.9248    -1.3192 H       
  48 H48            5.6866     4.0514     4.9459 H       
  49 H49            5.0155     6.4013     5.2240 H       
  50 H50            3.7878     7.5588     3.4443 H       
  51 H51            3.1542     8.3633     1.3982 H       
  52 H52            2.5445     7.9360    -0.2185 H       
  53 H53            0.4851     7.0072     0.8035 H       
  54 H54            1.0948     7.4345     2.4203 H       
  55 H55            1.1609     9.8247     1.7637 H       
  56 H56            0.5512     9.3974     0.1469 H       
  57 H57           -1.5082     8.4686     1.1690 H       
  58 H58           -0.8985     8.8958     2.7858 H       
  59 H59           -0.8324    11.2860     2.1292 H       
  60 H60           -1.4421    10.8588     0.5124 H       
  61 H61           -2.4718    10.6178     1.9442 H       
  62 H62            4.0118     1.7499     4.4293 H       
  63 H63            7.1944     0.5167     0.8625 H       
  64 H64            6.5246     2.8663     1.1430 H       
  65 H65            6.8411    -1.4688     0.3138 H       
  66 H66            8.1976    -1.2230     1.4398 H       
  67 H67            5.9635    -3.6929    -0.1077 H       
  68 H68            6.4350    -6.1094    -0.1483 H       
  69 H69            8.2962    -7.0231     1.1799 H       
  70 H70            9.6865    -5.5203     2.5481 H       
  71 H71            9.2202    -3.1027     2.5822 H       
@<TRIPOS>BOND
   1    1    2 1
   2    1    5 1
   3    2    3 1
   4    2   42 1
   5    2   43 1
   6    3    4 1
   7    4    5 ar
   8    4    6 ar
   9    5    9 ar
  10    6    7 ar
  11    6   44 1
  12    7    8 ar
  13    7   10 1
  14    8    9 ar
  15    8   11 1
  16    9   45 1
  17   10   12 1
  18   11   12 1
  19   11   14 1
  20   11   15 1
  21   12   46 1
  22   12   47 1
  23   13   14 am
  24   13   20 1
  25   13   22 1
  26   14   21 2
  27   15   16 ar
  28   15   20 ar
  29   16   17 ar
  30   16   27 1
  31   17   18 ar
  32   17   48 1
  33   18   19 ar
  34   18   49 1
  35   19   20 ar
  36   19   50 1
  37   22   23 1
  38   22   51 1
  39   22   52 1
  40   23   24 1
  41   23   53 1
  42   23   54 1
  43   24   25 1
  44   24   55 1
  45   24   56 1
  46   25   26 1
  47   25   57 1
  48   25   58 1
  49   26   59 1
  50   26   60 1
  51   26   61 1
  52   27   28 ar
  53   27   32 ar
  54   28   29 ar
  55   28   62 1
  56   29   30 ar
  57   29   33 1
  58   30   31 ar
  59   30   34 1
  60   31   32 ar
  61   31   63 1
  62   32   64 1
  63   34   35 1
  64   35   36 1
  65   35   65 1
  66   35   66 1
  67   36   37 ar
  68   36   41 ar
  69   37   38 ar
  70   37   67 1
  71   38   39 ar
  72   38   68 1
  73   39   40 ar
  74   39   69 1
  75   40   41 ar
  76   40   70 1
  77   41   71 1

#	End of record

