#	Name: ASD04880120
#	Creating user name:	WinNT
#	Creation time:	15. 06. 2019 20:52

#	Modifying user name:	WinNT
#	Modification time:	15. 06. 2019 20:52

#	Program:	/corina/corina34_cracker 3.40 0067  02.08.2006

@<TRIPOS>MOLECULE
ASD04880120
  50   53    0    0    0
SMALL
NO_CHARGES


@<TRIPOS>ATOM
   1 C1            -0.0144     1.2121     0.0087 C.2     
   2 O2             0.0468    -0.0024     0.0317 O.2     
   3 N3             1.1166     1.9428    -0.0488 N.am    
   4 N4             1.1806     3.3273    -0.1921 N.2     
   5 C5             2.3795     3.7987    -0.2210 C.2     
   6 C6             3.3711     2.6653    -0.0860 C.3     
   7 C7             2.4855     1.4095     0.0360 C.3     
   8 C8             4.2621     2.5811    -1.3269 C.3     
   9 C9             4.2198     2.8421     1.1748 C.3     
  10 C10            2.7302     5.2234    -0.3637 C.ar    
  11 C11            1.7224     6.1847    -0.4805 C.ar    
  12 C12            2.0568     7.5188    -0.6140 C.ar    
  13 C13            3.3962     7.9032    -0.6325 C.ar    
  14 C14            4.3966     6.9496    -0.5166 C.ar    
  15 C15            4.0705     5.6166    -0.3767 C.ar    
  16 O16            3.7230     9.2160    -0.7648 O.3     
  17 C17            5.1147     9.5401    -0.7761 C.3     
  18 O18            1.0787     8.4568    -0.7279 O.3     
  19 C19           -0.2723     7.9919    -0.7017 C.3     
  20 O20           -5.1043     3.5323     0.0976 O.3     
  21 C21           -5.8472     2.3348     0.3920 C.3     
  22 O22           -5.0010     1.2774    -0.0966 O.3     
  23 C23           -3.7286     1.7678    -0.0263 C.ar    
  24 C24           -3.7933     3.1570     0.0935 C.ar    
  25 C25           -2.5022     1.1339    -0.0542 C.ar    
  26 C26           -1.3271     1.8854     0.0376 C.ar    
  27 C27           -1.3988     3.2753     0.1572 C.ar    
  28 C28           -2.6256     3.9022     0.1844 C.ar    
  29 F29           -6.0470     2.2069     1.7707 F       
  30 F30           -7.0714     2.3371    -0.2851 F       
  31 H31            2.6462     0.9161     0.9945 H       
  32 H32            2.6812     0.7228    -0.7876 H       
  33 H33            4.8277     3.5070    -1.4316 H       
  34 H34            4.9521     1.7437    -1.2227 H       
  35 H35            3.6414     2.4327    -2.2105 H       
  36 H36            3.5693     2.8769     2.0487 H       
  37 H37            4.9099     2.0036     1.2687 H       
  38 H38            4.7848     3.7716     1.1051 H       
  39 H39            0.6847     5.8855    -0.4668 H       
  40 H40            5.4333     7.2518    -0.5317 H       
  41 H41            4.8514     4.8766    -0.2822 H       
  42 H42            5.5705     9.2178     0.1601 H       
  43 H43            5.5994     9.0322    -1.6099 H       
  44 H44            5.2360    10.6177    -0.8871 H       
  45 H45           -0.4340     7.2985    -1.5270 H       
  46 H46           -0.4632     7.4830     0.2431 H       
  47 H47           -0.9503     8.8395    -0.8013 H       
  48 H48           -2.4509     0.0591    -0.1466 H       
  49 H49           -0.4926     3.8585     0.2283 H       
  50 H50           -2.6789     4.9769     0.2771 H       
@<TRIPOS>BOND
   1    1    2 2
   2    1    3 am
   3    1   26 1
   4    3    4 1
   5    3    7 1
   6    4    5 2
   7    5    6 1
   8    5   10 1
   9    6    7 1
  10    6    8 1
  11    6    9 1
  12    7   31 1
  13    7   32 1
  14    8   33 1
  15    8   34 1
  16    8   35 1
  17    9   36 1
  18    9   37 1
  19    9   38 1
  20   10   11 ar
  21   10   15 ar
  22   11   12 ar
  23   11   39 1
  24   12   13 ar
  25   12   18 1
  26   13   14 ar
  27   13   16 1
  28   14   15 ar
  29   14   40 1
  30   15   41 1
  31   16   17 1
  32   17   42 1
  33   17   43 1
  34   17   44 1
  35   18   19 1
  36   19   45 1
  37   19   46 1
  38   19   47 1
  39   20   21 1
  40   20   24 1
  41   21   22 1
  42   21   29 1
  43   21   30 1
  44   22   23 1
  45   23   24 ar
  46   23   25 ar
  47   24   28 ar
  48   25   26 ar
  49   25   48 1
  50   26   27 ar
  51   27   28 ar
  52   27   49 1
  53   28   50 1

#	End of record

