#	Name: ASD01881758
#	Creating user name:	WinNT
#	Creation time:	15. 06. 2019 19:43

#	Modifying user name:	WinNT
#	Modification time:	15. 06. 2019 19:43

#	Program:	/corina/corina34_cracker 3.40 0067  02.08.2006

@<TRIPOS>MOLECULE
ASD01881758
  46   48    0    0    0
SMALL
NO_CHARGES


@<TRIPOS>ATOM
   1 C1             0.1437     1.5989    -0.0946 C.2     
   2 C2             0.0508     0.1223     0.1920 C.3     
   3 C3            -0.8757    -0.5384    -0.8308 C.3     
   4 O4             1.1967     2.0829    -0.4363 O.2     
   5 O5            -0.9447     2.3754     0.0244 O.3     
   6 O6             1.3516    -0.4627     0.1041 O.3     
   7 N7             2.4721    -5.0535     2.8741 N.pl3   
   8 N8             3.8381    -5.0952     2.5580 N.2     
   9 N9             4.1362    -4.0891     1.8140 N.2     
  10 C10            3.0430    -3.3340     1.5869 C.ar    
  11 C11            1.9628    -3.9335     2.2575 C.ar    
  12 C12            2.8277    -2.1559     0.8586 C.ar    
  13 C13            1.5636    -1.6054     0.8102 C.ar    
  14 C14            0.5031    -2.2112     1.4796 C.ar    
  15 C15            0.6982    -3.3592     2.1947 C.ar    
  16 C16            1.7320    -6.0162     3.6938 C.3     
  17 C17            1.7704    -5.5748     5.1583 C.3     
  18 C18            0.9526    -6.3887     6.1631 C.3     
  19 C19            2.4789    -6.4943     6.1549 C.3     
  20 Br20           4.2616    -1.3262    -0.0532 Br      
  21 C21           -0.7815     3.7884    -0.2675 C.3     
  22 C22           -0.3104     3.9595    -1.7131 C.3     
  23 C23           -2.1195     4.5060    -0.0788 C.3     
  24 C24            0.2574     4.3885     0.6819 C.3     
  25 H25           -0.3485    -0.0288     1.1949 H       
  26 H26           -0.9428    -1.6064    -0.6235 H       
  27 H27           -1.8679    -0.0922    -0.7638 H       
  28 H28           -0.4763    -0.3873    -1.8337 H       
  29 H29           -0.4814    -1.7696     1.4338 H       
  30 H30           -0.1306    -3.8212     2.7105 H       
  31 H31            0.6970    -6.0618     3.3551 H       
  32 H32            2.1891    -7.0011     3.5991 H       
  33 H33            1.8453    -4.5000     5.3235 H       
  34 H34            0.4898    -5.8494     6.9896 H       
  35 H35            0.3872    -7.2386     5.7808 H       
  36 H36            2.9177    -7.4137     5.7673 H       
  37 H37            3.0203    -6.0245     6.9761 H       
  38 H38           -1.0506     3.5319    -2.3894 H       
  39 H39           -0.1879     5.0202    -1.9322 H       
  40 H40            0.6428     3.4482    -1.8475 H       
  41 H41           -2.4551     4.3841     0.9511 H       
  42 H42           -1.9970     5.5667    -0.2979 H       
  43 H43           -2.8597     4.0784    -0.7551 H       
  44 H44            1.2107     3.8773     0.5474 H       
  45 H45            0.3800     5.4492     0.4628 H       
  46 H46           -0.0782     4.2666     1.7117 H       
@<TRIPOS>BOND
   1    1    2 1
   2    1    4 2
   3    1    5 1
   4    2    3 1
   5    2    6 1
   6    2   25 1
   7    3   26 1
   8    3   27 1
   9    3   28 1
  10    5   21 1
  11    6   13 1
  12    7    8 1
  13    7   11 1
  14    7   16 1
  15    8    9 2
  16    9   10 1
  17   10   11 ar
  18   10   12 ar
  19   11   15 ar
  20   12   13 ar
  21   12   20 1
  22   13   14 ar
  23   14   15 ar
  24   14   29 1
  25   15   30 1
  26   16   17 1
  27   16   31 1
  28   16   32 1
  29   17   18 1
  30   17   19 1
  31   17   33 1
  32   18   19 1
  33   18   34 1
  34   18   35 1
  35   19   36 1
  36   19   37 1
  37   21   22 1
  38   21   24 1
  39   21   23 1
  40   22   38 1
  41   22   39 1
  42   22   40 1
  43   23   41 1
  44   23   42 1
  45   23   43 1
  46   24   44 1
  47   24   45 1
  48   24   46 1

#	End of record

