#	Name: ASD01913577
#	Creating user name:	WinNT
#	Creation time:	15. 06. 2019 20:01

#	Modifying user name:	WinNT
#	Modification time:	15. 06. 2019 20:01

#	Program:	/corina/corina34_cracker 3.40 0067  02.08.2006

@<TRIPOS>MOLECULE
ASD01913577
  37   39    0    0    0
SMALL
NO_CHARGES


@<TRIPOS>ATOM
   1 C1            -0.1234     1.3550    -0.8780 C.ar    
   2 C2            -0.1852    -0.0358    -0.9216 C.ar    
   3 C3             0.4355    -0.6903    -1.9828 C.ar    
   4 N4             1.0565     0.0273    -2.9040 N.ar    
   5 C5             1.0925     1.3425    -2.8268 C.ar    
   6 N6             0.5178     1.9989    -1.8390 N.ar    
   7 C7            -0.9141    -2.1451     0.0053 C.ar    
   8 C8             0.2303    -2.9209     0.1829 C.ar    
   9 C9             0.1307    -4.2983     0.1136 C.ar    
  10 N10           -1.0255    -4.8835    -0.1172 N.ar    
  11 C11           -2.1419    -4.1847    -0.2927 C.ar    
  12 C12           -2.1240    -2.7958    -0.2373 C.ar    
  13 C13           -3.4176    -4.8923    -0.5502 C.2     
  14 N14           -3.4421    -6.2387    -0.6056 N.am    
  15 N15           -0.8522    -0.7557     0.0739 N.pl3   
  16 O16           -4.4420    -4.2589    -0.7115 O.2     
  17 C17           -4.6561    -6.9082    -0.7427 C.ar    
  18 C18           -4.6871    -8.2965    -0.6834 C.ar    
  19 C19           -5.8998    -8.9500    -0.8205 C.ar    
  20 C20           -7.0439    -8.1893    -1.0129 C.ar    
  21 C21           -6.9401    -6.8111    -1.0616 C.ar    
  22 N22           -5.7703    -6.2158    -0.9226 N.ar    
  23 C23           -1.4861    -0.0485     1.1893 C.3     
  24 Cl24          -8.3669    -5.8519    -1.3026 Cl      
  25 H25           -0.5958     1.8997    -0.0739 H       
  26 H26            0.4103    -1.7678    -2.0523 H       
  27 H27            1.6085     1.8987    -3.5955 H       
  28 H28            1.1843    -2.4514     0.3721 H       
  29 H29            1.0149    -4.9031     0.2506 H       
  30 H30           -3.0324    -2.2293    -0.3801 H       
  31 H31           -2.6145    -6.7416    -0.5501 H       
  32 H32           -3.7770    -8.8581    -0.5328 H       
  33 H33           -5.9539   -10.0278    -0.7790 H       
  34 H34           -8.0055    -8.6684    -1.1238 H       
  35 H35           -2.5166     0.1924     0.9282 H       
  36 H36           -1.4747    -0.6832     2.0754 H       
  37 H37           -0.9387     0.8715     1.3943 H       
@<TRIPOS>BOND
   1    1    2 ar
   2    1    6 ar
   3    1   25 1
   4    2    3 ar
   5    2   15 1
   6    3    4 ar
   7    3   26 1
   8    4    5 ar
   9    5    6 ar
  10    5   27 1
  11    7    8 ar
  12    7   12 ar
  13    7   15 1
  14    8    9 ar
  15    8   28 1
  16    9   10 ar
  17    9   29 1
  18   10   11 ar
  19   11   12 ar
  20   11   13 1
  21   12   30 1
  22   13   14 am
  23   13   16 2
  24   14   17 1
  25   14   31 1
  26   15   23 1
  27   17   18 ar
  28   17   22 ar
  29   18   19 ar
  30   18   32 1
  31   19   20 ar
  32   19   33 1
  33   20   21 ar
  34   20   34 1
  35   21   22 ar
  36   21   24 1
  37   23   35 1
  38   23   36 1
  39   23   37 1

#	End of record

