#	Name: ASD08070113
#	Creating user name:	WinNT
#	Creation time:	15. 06. 2019 21:14

#	Modifying user name:	WinNT
#	Modification time:	15. 06. 2019 21:14

#	Program:	/corina/corina34_cracker 3.40 0067  02.08.2006

@<TRIPOS>MOLECULE
ASD08070113
  48   49    0    0    0
SMALL
NO_CHARGES


@<TRIPOS>ATOM
   1 C1            -0.0397     1.5163     0.0108 C.2     
   2 C2            -0.0300     0.0218     0.0070 C.2     
   3 N3            -1.1928    -0.6597     0.0137 N.am    
   4 C4            -1.1832    -2.1246     0.0100 C.3     
   5 C5            -2.6223    -2.6441     0.0191 C.3     
   6 C6            -2.6125    -4.1510     0.0153 C.ar    
   7 C7            -3.2901    -4.8411     1.0029 C.ar    
   8 C8            -3.2752    -6.2272     0.9900 C.ar    
   9 N9             1.1230     2.1978     0.0041 N.am    
  10 C10            1.1135     3.6627     0.0078 C.3     
  11 C11            2.5309     4.1743    -0.0012 C.ar    
  12 C12            3.1191     4.6014     1.1733 C.ar    
  13 C13            4.4198     5.0710     1.1657 C.ar    
  14 C14            5.1346     5.1143    -0.0167 C.ar    
  15 C15            4.5506     4.6887    -1.1944 C.ar    
  16 C16            3.2482     4.2115    -1.1884 C.ar    
  17 O17            2.6716     3.7922    -2.3454 O.3     
  18 C18            3.4191     3.9815    -3.5485 C.3     
  19 C19            4.3805     2.8071    -3.7416 C.3     
  20 C20            2.4601     4.0564    -4.7383 C.3     
  21 O21           -1.0946     2.1161     0.0148 O.2     
  22 O22            1.0248    -0.5781    -0.0021 O.2     
  23 N23           -1.9621    -4.7960    -0.9331 N.ar    
  24 C24           -1.9266    -6.1137    -0.9768 C.ar    
  25 C25           -2.5761    -6.8704    -0.0203 C.ar    
  26 H26           -2.0359    -0.1802     0.0210 H       
  27 H27           -0.6735    -2.4824    -0.8846 H       
  28 H28           -0.6606    -2.4868     0.8953 H       
  29 H29           -3.1321    -2.2863     0.9137 H       
  30 H30           -3.1449    -2.2819    -0.8662 H       
  31 H31           -3.8242    -4.3071     1.7749 H       
  32 H32           -3.7954    -6.7928     1.7489 H       
  33 H33            1.9662     1.7183    -0.0032 H       
  34 H34            0.5909     4.0249    -0.8776 H       
  35 H35            0.6037     4.0205     0.9024 H       
  36 H36            2.5626     4.5688     2.0983 H       
  37 H37            4.8778     5.4048     2.0851 H       
  38 H38            6.1503     5.4815    -0.0201 H       
  39 H39            5.1094     4.7231    -2.1180 H       
  40 H40            3.9875     4.9091    -3.4810 H       
  41 H41            3.8121     1.8795    -3.8091 H       
  42 H42            4.9507     2.9514    -4.6593 H       
  43 H43            5.0637     2.7537    -2.8940 H       
  44 H44            1.7751     4.8931    -4.6007 H       
  45 H45            3.0302     4.2008    -5.6560 H       
  46 H46            1.8916     3.1288    -4.8058 H       
  47 H47           -1.3836    -6.6070    -1.7694 H       
  48 H48           -2.5428    -7.9491    -0.0611 H       
@<TRIPOS>BOND
   1    1    2 1
   2    1    9 am
   3    1   21 2
   4    2    3 am
   5    2   22 2
   6    3    4 1
   7    3   26 1
   8    4    5 1
   9    4   27 1
  10    4   28 1
  11    5    6 1
  12    5   29 1
  13    5   30 1
  14    6    7 ar
  15    6   23 ar
  16    7    8 ar
  17    7   31 1
  18    8   25 ar
  19    8   32 1
  20    9   10 1
  21    9   33 1
  22   10   11 1
  23   10   34 1
  24   10   35 1
  25   11   12 ar
  26   11   16 ar
  27   12   13 ar
  28   12   36 1
  29   13   14 ar
  30   13   37 1
  31   14   15 ar
  32   14   38 1
  33   15   16 ar
  34   15   39 1
  35   16   17 1
  36   17   18 1
  37   18   19 1
  38   18   20 1
  39   18   40 1
  40   19   41 1
  41   19   42 1
  42   19   43 1
  43   20   44 1
  44   20   45 1
  45   20   46 1
  46   23   24 ar
  47   24   25 ar
  48   24   47 1
  49   25   48 1

#	End of record

