#	Name: ASD01412020
#	Creating user name:	WinNT
#	Creation time:	15. 06. 2019 19:19

#	Modifying user name:	WinNT
#	Modification time:	15. 06. 2019 19:19

#	Program:	/corina/corina34_cracker 3.40 0067  02.08.2006

@<TRIPOS>MOLECULE
ASD01412020
  84   89    0    0    0
SMALL
NO_CHARGES


@<TRIPOS>ATOM
   1 C1            -1.1721     3.2494    -0.6277 C.ar    
   2 C2            -0.9746     1.9108    -1.0234 C.ar    
   3 C3            -2.0430     1.0032    -0.9798 C.ar    
   4 C4            -3.2691     1.4145    -0.5557 C.ar    
   5 C5            -3.4750     2.7445    -0.1605 C.ar    
   6 C6            -2.4232     3.6580    -0.1929 C.ar    
   7 N7             0.0354     3.9014    -0.7728 N.pl3   
   8 C8             0.9674     3.0073    -1.2445 C.2     
   9 C9             0.3832     1.7926    -1.4057 C.2     
  10 C10            1.0599     0.5410    -1.9025 C.3     
  11 C11            0.9721    -0.5463    -0.8297 C.3     
  12 C12            1.6592    -1.8170    -1.3340 C.3     
  13 C13            0.9646    -2.3008    -2.6085 C.3     
  14 C14            1.0523    -1.2135    -3.6813 C.3     
  15 C15            0.3653     0.0572    -3.1770 C.3     
  16 C16           -4.8097     3.1769     0.2961 C.2     
  17 O17           -4.9910     4.3292     0.6393 O.2     
  18 N18           -5.8279     2.2946     0.3328 N.am    
  19 C19           -7.1531     2.7239     0.7862 C.3     
  20 C20           -8.1049     1.5568     0.7325 C.2     
  21 C21           -7.0583     3.2389     2.2238 C.3     
  22 C22           -7.6658     3.8423    -0.1233 C.3     
  23 C23           -8.8163    -0.4856    -0.2494 C.ar    
  24 O24           -8.9748     1.4446     1.5701 O.2     
  25 C25           -9.1916    -1.0740     0.9547 C.ar    
  26 C26          -10.0115    -2.1792     0.9568 C.ar    
  27 C27          -10.4687    -2.7113    -0.2549 C.ar    
  28 C28          -10.0889    -2.1156    -1.4638 C.ar    
  29 C29           -9.2683    -1.0111    -1.4562 C.ar    
  30 C30          -11.3440    -3.8915    -0.2579 C.2     
  31 C31          -12.3915    -3.9578     0.5929 C.2     
  32 N32           -7.9894     0.6375    -0.2464 N.am    
  33 C33            0.2832     5.3141    -0.4742 C.3     
  34 C34            2.7071     4.4760    -2.2217 C.ar    
  35 C35            2.3834     3.3198    -1.5310 C.ar    
  36 C36            3.3939     2.4418    -1.1003 C.ar    
  37 C37            4.7012     2.7068    -1.3502 C.ar    
  38 C38            5.0641     3.8733    -2.0493 C.ar    
  39 C39            4.0528     4.7647    -2.4881 C.ar    
  40 C40            4.4251     5.9298    -3.1871 C.ar    
  41 C41            5.7542     6.1494    -3.4120 C.ar    
  42 C42            6.6972     5.2322    -2.9532 C.ar    
  43 N43            6.3471     4.1487    -2.3034 N.ar    
  44 C44          -12.7896    -2.8065     1.3182 C.2     
  45 O45          -12.2157    -1.7484     1.1427 O.2     
  46 O46          -13.8051    -2.8845     2.2032 O.3     
  47 H47           -1.8927    -0.0224    -1.2831 H       
  48 H48           -4.0890     0.7123    -0.5236 H       
  49 H49           -2.5840     4.6814     0.1123 H       
  50 H50            2.1067     0.7551    -2.1181 H       
  51 H51            1.4670    -0.2016     0.0783 H       
  52 H52           -0.0747    -0.7604    -0.6141 H       
  53 H53            2.7060    -1.6029    -1.5495 H       
  54 H54            1.5966    -2.5916    -0.5697 H       
  55 H55            1.4540    -3.2060    -2.9677 H       
  56 H56           -0.0822    -2.5148    -2.3929 H       
  57 H57            2.0991    -0.9994    -3.8969 H       
  58 H58            0.5575    -1.5581    -4.5893 H       
  59 H59           -0.6815    -0.1568    -2.9614 H       
  60 H60            0.4278     0.8318    -3.9413 H       
  61 H61           -5.6832     1.3753     0.0591 H       
  62 H62           -6.3698     4.0831     2.2627 H       
  63 H63           -8.0443     3.5583     2.5612 H       
  64 H64           -6.6931     2.4421     2.8718 H       
  65 H65           -7.7334     3.4755    -1.1475 H       
  66 H66           -8.6518     4.1618     0.2140 H       
  67 H67           -6.9774     4.6865    -0.0845 H       
  68 H68           -8.8384    -0.6629     1.8889 H       
  69 H69          -10.3016    -2.6356     1.8916 H       
  70 H70          -10.4390    -2.5229    -2.4008 H       
  71 H71           -8.9751    -0.5507    -2.3882 H       
  72 H72          -11.1500    -4.7059    -0.9401 H       
  73 H73          -12.9255    -4.8878     0.7204 H       
  74 H74           -7.3312     0.7571    -0.9488 H       
  75 H75            0.5950     5.4164     0.5652 H       
  76 H76            1.0695     5.6911    -1.1282 H       
  77 H77           -0.6304     5.8857    -0.6375 H       
  78 H78            1.9295     5.1470    -2.5555 H       
  79 H79            3.1258     1.5443    -0.5628 H       
  80 H80            5.4644     2.0217    -1.0118 H       
  81 H81            3.6802     6.6297    -3.5358 H       
  82 H82            6.0737     7.0327    -3.9451 H       
  83 H83            7.7448     5.4184    -3.1384 H       
  84 H84          -14.0037    -2.0494     2.6486 H       
@<TRIPOS>BOND
   1    1    2 ar
   2    1    7 1
   3    1    6 ar
   4    2    3 ar
   5    2    9 1
   6    3    4 ar
   7    3   47 1
   8    4    5 ar
   9    4   48 1
  10    5    6 ar
  11    5   16 1
  12    6   49 1
  13    7    8 1
  14    7   33 1
  15    8    9 2
  16    8   35 1
  17    9   10 1
  18   10   11 1
  19   10   15 1
  20   10   50 1
  21   11   12 1
  22   11   51 1
  23   11   52 1
  24   12   13 1
  25   12   53 1
  26   12   54 1
  27   13   14 1
  28   13   55 1
  29   13   56 1
  30   14   15 1
  31   14   57 1
  32   14   58 1
  33   15   59 1
  34   15   60 1
  35   16   17 2
  36   16   18 am
  37   18   19 1
  38   18   61 1
  39   19   20 1
  40   19   21 1
  41   19   22 1
  42   20   24 2
  43   20   32 am
  44   21   62 1
  45   21   63 1
  46   21   64 1
  47   22   65 1
  48   22   66 1
  49   22   67 1
  50   23   25 ar
  51   23   29 ar
  52   23   32 1
  53   25   26 ar
  54   25   68 1
  55   26   27 ar
  56   26   69 1
  57   27   28 ar
  58   27   30 1
  59   28   29 ar
  60   28   70 1
  61   29   71 1
  62   30   31 2
  63   30   72 1
  64   31   44 1
  65   31   73 1
  66   32   74 1
  67   33   75 1
  68   33   76 1
  69   33   77 1
  70   34   35 ar
  71   34   39 ar
  72   34   78 1
  73   35   36 ar
  74   36   37 ar
  75   36   79 1
  76   37   38 ar
  77   37   80 1
  78   38   39 ar
  79   38   43 ar
  80   39   40 ar
  81   40   41 ar
  82   40   81 1
  83   41   42 ar
  84   41   82 1
  85   42   43 ar
  86   42   83 1
  87   44   45 2
  88   44   46 1
  89   46   84 1

#	End of record

