#	Name: ASD01901509
#	Creating user name:	WinNT
#	Creation time:	15. 06. 2019 19:53

#	Modifying user name:	WinNT
#	Modification time:	15. 06. 2019 19:53

#	Program:	/corina/corina34_cracker 3.40 0067  02.08.2006

@<TRIPOS>MOLECULE
ASD01901509
  44   47    0    0    0
SMALL
NO_CHARGES


@<TRIPOS>ATOM
   1 C1            -0.0313     1.4113     0.0054 C.3     
   2 O2            -0.0124    -0.0175    -0.0073 O.3     
   3 C3             0.5943    -0.6167    -1.0642 C.ar    
   4 C4             1.1640     0.1519    -2.0642 C.ar    
   5 C5             1.7839    -0.4630    -3.1442 C.ar    
   6 N6             2.3583     0.3139    -4.1523 N.am    
   7 C7             3.4807    -0.1055    -4.7695 C.2     
   8 O8             4.0469    -1.1095    -4.3844 O.2     
   9 C9             4.0241     0.6573    -5.9170 C.ar    
  10 C10            5.1813     0.2155    -6.5542 C.ar    
  11 C11            5.6778     0.9400    -7.6267 C.ar    
  12 C12            4.9994     2.0812    -8.0244 C.ar    
  13 C13            3.8535     2.4622    -7.3441 C.ar    
  14 N14            3.4011     1.7534    -6.3331 N.ar    
  15 C15            1.8345    -1.8507    -3.2239 C.ar    
  16 C16            1.2693    -2.6225    -2.2318 C.ar    
  17 C17            0.6500    -2.0129    -1.1421 C.ar    
  18 C18            0.0473    -2.8413    -0.0709 C.2     
  19 N19           -0.5701    -2.4002     0.9964 N.2     
  20 O20           -0.9489    -3.3291     1.6778 O.3     
  21 C21           -0.6035    -4.4907     1.1010 C.2     
  22 N22            0.0284    -4.1902    -0.0181 N.2     
  23 C23           -0.8823    -5.8470     1.6174 C.ar    
  24 C24           -0.4536    -6.9694     0.9072 C.ar    
  25 C25           -0.7171    -8.2328     1.3947 C.ar    
  26 C26           -1.4052    -8.3895     2.5849 C.ar    
  27 C27           -1.8338    -7.2822     3.2945 C.ar    
  28 C28           -1.5711    -6.0116     2.8217 C.ar    
  29 Cl29          -2.1027    -4.6226     3.7171 Cl      
  30 H30            0.9914     1.7882     0.0025 H       
  31 H31           -0.5553     1.7756    -0.8782 H       
  32 H32           -0.5445     1.7599     0.9017 H       
  33 H33            1.1262     1.2296    -2.0049 H       
  34 H34            1.9495     1.1554    -4.4085 H       
  35 H35            5.6847    -0.6785    -6.2172 H       
  36 H36            6.5732     0.6225    -8.1404 H       
  37 H37            5.3602     2.6680    -8.8561 H       
  38 H38            3.3225     3.3511    -7.6512 H       
  39 H39            2.3176    -2.3246    -4.0656 H       
  40 H40            1.3102    -3.6998    -2.2966 H       
  41 H41            0.0829    -6.8491    -0.0223 H       
  42 H42           -0.3858    -9.1018     0.8457 H       
  43 H43           -1.6089    -9.3811     2.9613 H       
  44 H44           -2.3710    -7.4116     4.2225 H       
@<TRIPOS>BOND
   1    1    2 1
   2    1   30 1
   3    1   31 1
   4    1   32 1
   5    2    3 1
   6    3   17 ar
   7    3    4 ar
   8    4    5 ar
   9    4   33 1
  10    5    6 1
  11    5   15 ar
  12    6    7 am
  13    6   34 1
  14    7    8 2
  15    7    9 1
  16    9   14 ar
  17    9   10 ar
  18   10   11 ar
  19   10   35 1
  20   11   12 ar
  21   11   36 1
  22   12   13 ar
  23   12   37 1
  24   13   14 ar
  25   13   38 1
  26   15   16 ar
  27   15   39 1
  28   16   17 ar
  29   16   40 1
  30   17   18 1
  31   18   22 1
  32   18   19 2
  33   19   20 1
  34   20   21 1
  35   21   22 2
  36   21   23 1
  37   23   28 ar
  38   23   24 ar
  39   24   25 ar
  40   24   41 1
  41   25   26 ar
  42   25   42 1
  43   26   27 ar
  44   26   43 1
  45   27   28 ar
  46   27   44 1
  47   28   29 1

#	End of record

