#	Name: ASD01100031
#	Creating user name:	WinNT
#	Creation time:	15. 06. 2019 18:58

#	Modifying user name:	WinNT
#	Modification time:	15. 06. 2019 18:58

#	Program:	/corina/corina34_cracker 3.40 0067  02.08.2006

@<TRIPOS>MOLECULE
ASD01100031
  33   34    0    0    0
SMALL
NO_CHARGES


@<TRIPOS>ATOM
   1 C1             0.1623     1.2945    -0.9228 C.ar    
   2 C2             0.2404    -0.0851    -0.9929 C.ar    
   3 C3             1.4414    -0.7232    -0.7391 C.ar    
   4 C4             2.5625     0.0177    -0.4156 C.ar    
   5 C5             2.4839     1.3961    -0.3458 C.ar    
   6 C6             1.2841     2.0343    -0.5993 C.ar    
   7 C7             3.7065     2.2033     0.0074 C.3     
   8 C8             3.4372     3.0055     1.2821 C.3     
   9 C9             3.2213     2.0448     2.4532 C.3     
  10 C10            4.6354     3.9096     1.5784 C.3     
  11 Cl11          -1.1683    -1.0150    -1.3986 Cl      
  12 C12            4.0283     3.1478    -1.1219 C.2     
  13 N13            5.1805     3.8468    -1.1082 N.am    
  14 O14            3.2505     3.2789    -2.0431 O.2     
  15 C15            5.4404     4.7767    -2.1061 C.2     
  16 N16            6.5159     5.5232    -2.2160 N.2     
  17 N17            6.4376     6.2758    -3.2537 N.2     
  18 N18            5.3258     6.0695    -3.8728 N.2     
  19 N19            4.6363     5.0798    -3.1507 N.pl3   
  20 H20           -0.7739     1.7935    -1.1252 H       
  21 H21            1.5029    -1.8001    -0.7933 H       
  22 H22            3.5000    -0.4804    -0.2171 H       
  23 H23            1.2233     3.1112    -0.5445 H       
  24 H24            4.5498     1.5325     0.1716 H       
  25 H25            2.5456     3.6173     1.1449 H       
  26 H26            4.1130     1.4330     2.5904 H       
  27 H27            3.0295     2.6163     3.3614 H       
  28 H28            2.3677     1.4007     2.2422 H       
  29 H29            4.8523     4.5235     0.7042 H       
  30 H30            4.4036     4.5539     2.4264 H       
  31 H31            5.5042     3.2954     1.8156 H       
  32 H32            5.8283     3.7003    -0.4012 H       
  33 H33            3.7674     4.6998    -3.3546 H       
@<TRIPOS>BOND
   1    1    2 ar
   2    1    6 ar
   3    1   20 1
   4    2    3 ar
   5    2   11 1
   6    3    4 ar
   7    3   21 1
   8    4    5 ar
   9    4   22 1
  10    5    6 ar
  11    5    7 1
  12    6   23 1
  13    7    8 1
  14    7   12 1
  15    7   24 1
  16    8    9 1
  17    8   10 1
  18    8   25 1
  19    9   26 1
  20    9   27 1
  21    9   28 1
  22   10   29 1
  23   10   30 1
  24   10   31 1
  25   12   13 am
  26   12   14 2
  27   13   15 1
  28   13   32 1
  29   15   16 2
  30   15   19 1
  31   16   17 1
  32   17   18 2
  33   18   19 1
  34   19   33 1

#	End of record

