#	Name: ASD09610047
#	Creating user name:	WinNT
#	Creation time:	15. 06. 2019 21:22

#	Modifying user name:	WinNT
#	Modification time:	15. 06. 2019 21:22

#	Program:	/corina/corina34_cracker 3.40 0067  02.08.2006

@<TRIPOS>MOLECULE
ASD09610047
  37   39    0    0    0
SMALL
NO_CHARGES


@<TRIPOS>ATOM
   1 C1            -0.0167     1.3781     0.0096 C.ar    
   2 C2             0.0021    -0.0041     0.0020 C.ar    
   3 C3             1.2216    -0.6630    -0.0131 C.ar    
   4 C4             2.3820     0.0963    -0.0201 C.ar    
   5 C5             2.2849     1.4746    -0.0118 C.ar    
   6 N6             1.1070     2.0678     0.0026 N.ar    
   7 O7            -2.3736    -2.2960     1.4515 O.3     
   8 N8            -1.1060    -2.0694     0.7272 N.3     
   9 C9            -1.2869    -0.7847     0.0106 C.3     
  10 C10           -2.3668    -0.0275     0.8116 C.3     
  11 C11           -2.7432    -0.9928     1.9577 C.3     
  12 C12           -1.7637    -1.0374    -1.4211 C.3     
  13 C13           -0.8348    -3.1638    -0.2144 C.3     
  14 C14           -4.2234    -0.9334     2.2341 C.ar    
  15 C15           -4.7002    -0.1704     3.2836 C.ar    
  16 C16           -6.0577    -0.1155     3.5376 C.ar    
  17 C17           -6.9394    -0.8245     2.7413 C.ar    
  18 C18           -6.4616    -1.5880     1.6911 C.ar    
  19 C19           -5.1043    -1.6375     1.4346 C.ar    
  20 Cl20          -8.6445    -0.7566     3.0600 Cl      
  21 H21           -0.9627     1.8990     0.0169 H       
  22 H22            1.2670    -1.7420    -0.0190 H       
  23 H23            3.3495    -0.3836    -0.0316 H       
  24 H24            3.1839     2.0731    -0.0171 H       
  25 H25           -1.9615     0.9012     1.2135 H       
  26 H26           -3.2346     0.1749     0.1838 H       
  27 H27           -2.1754    -0.7572     2.8579 H       
  28 H28           -1.0013    -1.5954    -1.9647 H       
  29 H29           -2.6891    -1.6129    -1.3997 H       
  30 H30           -1.9402    -0.0839    -1.9189 H       
  31 H31           -1.6466    -3.2293    -0.9389 H       
  32 H32            0.1028    -2.9707    -0.7357 H       
  33 H33           -0.7594    -4.1036     0.3327 H       
  34 H34           -4.0119     0.3827     3.9054 H       
  35 H35           -6.4301     0.4803     4.3578 H       
  36 H36           -7.1494    -2.1416     1.0691 H       
  37 H37           -4.7316    -2.2299     0.6121 H       
@<TRIPOS>BOND
   1    1    2 ar
   2    1    6 ar
   3    1   21 1
   4    2    3 ar
   5    2    9 1
   6    3    4 ar
   7    3   22 1
   8    4    5 ar
   9    4   23 1
  10    5    6 ar
  11    5   24 1
  12    7    8 1
  13    7   11 1
  14    8    9 1
  15    8   13 1
  16    9   10 1
  17    9   12 1
  18   10   11 1
  19   10   25 1
  20   10   26 1
  21   11   14 1
  22   11   27 1
  23   12   28 1
  24   12   29 1
  25   12   30 1
  26   13   31 1
  27   13   32 1
  28   13   33 1
  29   14   15 ar
  30   14   19 ar
  31   15   16 ar
  32   15   34 1
  33   16   17 ar
  34   16   35 1
  35   17   18 ar
  36   17   20 1
  37   18   19 ar
  38   18   36 1
  39   19   37 1

#	End of record

