#	Name: ASD01190015
#	Creating user name:	WinNT
#	Creation time:	15. 06. 2019 19:07

#	Modifying user name:	WinNT
#	Modification time:	15. 06. 2019 19:07

#	Program:	/corina/corina34_cracker 3.40 0067  02.08.2006

@<TRIPOS>MOLECULE
ASD01190015
  49   52    0    0    0
SMALL
NO_CHARGES


@<TRIPOS>ATOM
   1 C1            -0.0187     1.5279     0.0104 C.3     
   2 C2            -3.6704    -0.2727     5.2518 C.ar    
   3 C3            -2.8791     0.0744     6.3370 C.ar    
   4 C4            -1.5473     0.3974     6.1429 C.ar    
   5 C5            -0.9881     0.3689     4.8721 C.ar    
   6 C6            -1.7903     0.0364     3.7931 C.ar    
   7 C7            -3.1207    -0.2882     3.9846 C.ar    
   8 C8             0.4781     0.6940     4.7504 C.3     
   9 C9             0.9023     0.8916     3.2879 C.3     
  10 C10            0.2744    -0.2542     2.5024 C.3     
  11 C11           -1.2234     0.0606     2.4043 C.3     
  12 C12            0.8419    -0.5731     1.1635 C.3     
  13 C13            0.0021    -0.0041     0.0020 C.3     
  14 C14           -1.4024    -0.5503    -0.0125 C.3     
  15 C15           -1.8896    -0.8712     1.4134 C.3     
  16 C16            2.2439    -0.0435     0.8324 C.3     
  17 C17            2.3219    -0.1989    -0.7119 C.3     
  18 C18            0.8697    -0.4198    -1.2046 C.3     
  19 O19           -3.4115     0.0993     7.5875 O.3     
  20 O20            0.6480    -1.8150    -1.5209 O.3     
  21 O21            1.2519    -1.3884    -3.6034 O.2     
  22 C22            0.8776    -2.1968    -2.7871 C.2     
  23 C23            0.6684    -3.6336    -3.1906 C.3     
  24 H24            0.9803     1.9060    -0.2066 H       
  25 H25           -0.7153     1.8860    -0.7476 H       
  26 H26           -0.3359     1.8816     0.9915 H       
  27 H27           -4.7135    -0.5222     5.3944 H       
  28 H28           -0.9397     0.6829     6.9895 H       
  29 H29           -3.7463    -0.5483     3.1424 H       
  30 H30            0.6935     1.6050     5.3067 H       
  31 H31            1.0575    -0.1269     5.1729 H       
  32 H32            0.5198     1.8460     2.9315 H       
  33 H33            1.9848     0.8561     3.2108 H       
  34 H34            0.3693    -1.1630     3.1309 H       
  35 H35           -1.3406     1.0878     2.0578 H       
  36 H36            0.8809    -1.6777     1.0538 H       
  37 H37           -2.0778     0.1925    -0.4621 H       
  38 H38           -1.4507    -1.4554    -0.6237 H       
  39 H39           -1.6564    -1.9098     1.6571 H       
  40 H40           -2.9762    -0.7406     1.4564 H       
  41 H41            2.3590     0.9953     1.1266 H       
  42 H42            3.0066    -0.6611     1.3106 H       
  43 H43            2.7368     0.7011    -1.1595 H       
  44 H44            2.9373    -1.0636    -0.9673 H       
  45 H45            0.6449     0.2214    -2.0500 H       
  46 H46           -3.3452    -0.7417     8.0601 H       
  47 H47           -0.3589    -3.7704    -3.5282 H       
  48 H48            1.3535    -3.8873    -3.9995 H       
  49 H49            0.8594    -4.2825    -2.3358 H       
@<TRIPOS>BOND
   1    1   13 1
   2    1   24 1
   3    1   25 1
   4    1   26 1
   5    2    3 ar
   6    2    7 ar
   7    2   27 1
   8    3    4 ar
   9    3   19 1
  10    4    5 ar
  11    4   28 1
  12    5    6 ar
  13    5    8 1
  14    6    7 ar
  15    6   11 1
  16    7   29 1
  17    8    9 1
  18    8   30 1
  19    8   31 1
  20    9   10 1
  21    9   32 1
  22    9   33 1
  23   10   11 1
  24   10   12 1
  25   10   34 1
  26   11   15 1
  27   11   35 1
  28   12   13 1
  29   12   16 1
  30   12   36 1
  31   13   14 1
  32   13   18 1
  33   14   15 1
  34   14   37 1
  35   14   38 1
  36   15   39 1
  37   15   40 1
  38   16   17 1
  39   16   41 1
  40   16   42 1
  41   17   18 1
  42   17   43 1
  43   17   44 1
  44   18   20 1
  45   18   45 1
  46   19   46 1
  47   20   22 1
  48   21   22 2
  49   22   23 1
  50   23   47 1
  51   23   48 1
  52   23   49 1

#	End of record

