#	Name: ASD01810055
#	Creating user name:	WinNT
#	Creation time:	15. 06. 2019 19:23

#	Modifying user name:	WinNT
#	Modification time:	15. 06. 2019 19:23

#	Program:	/corina/corina34_cracker 3.40 0067  02.08.2006

@<TRIPOS>MOLECULE
ASD01810055
  59   63    0    0    0
SMALL
NO_CHARGES


@<TRIPOS>ATOM
   1 Cl1            7.2472    10.2630    -4.4255 Cl      
   2 C2             0.0947     1.1964    -0.6374 C.ar    
   3 C3             0.1368    -0.1851    -0.7084 C.ar    
   4 C4             1.3502    -0.8454    -0.7203 C.ar    
   5 C5             2.5305    -0.1209    -0.6609 C.ar    
   6 C6             2.4880     1.2733    -0.5892 C.ar    
   7 C7             1.2657     1.9269    -0.5778 C.ar    
   8 N8             3.8754    -0.4834    -0.6549 N.am    
   9 C9             4.6167     0.6382    -0.5829 C.2     
  10 N10            3.8084     1.7142    -0.5419 N.am    
  11 C11            4.2435     3.1108    -0.4623 C.3     
  12 C12            5.0616     3.3198     0.8151 C.3     
  13 C13            5.5644     4.7645     0.8623 C.3     
  14 N14            6.3920     5.0350    -0.3201 N.3     
  15 C15            5.6149     4.8867    -1.5573 C.3     
  16 C16            5.1137     3.4458    -1.6768 C.3     
  17 O17            5.8328     0.6741    -0.5590 O.2     
  18 C18            7.0050     6.3676    -0.2400 C.3     
  19 C19            7.9559     6.5654    -1.4237 C.3     
  20 C20            8.5447     7.9769    -1.3684 C.3     
  21 N21            7.4586     8.9640    -1.4196 N.3     
  22 C22            6.5592     8.8241    -0.2673 C.3     
  23 C23            5.9111     7.4379    -0.2897 C.3     
  24 C24            7.9923    10.3298    -1.5081 C.3     
  25 C25            6.8961    11.2706    -1.9373 C.ar    
  26 C26            6.4916    11.3040    -3.2598 C.ar    
  27 C27            5.4847    12.1678    -3.6531 C.ar    
  28 C28            4.8838    12.9965    -2.7247 C.ar    
  29 C29            5.2886    12.9627    -1.4031 C.ar    
  30 C30            6.2907    12.0964    -1.0086 C.ar    
  31 H31           -0.8577     1.7057    -0.6331 H       
  32 H32           -0.7829    -0.7495    -0.7544 H       
  33 H33            1.3792    -1.9236    -0.7755 H       
  34 H34            1.2288     3.0049    -0.5228 H       
  35 H35            4.2193    -1.3895    -0.6951 H       
  36 H36            3.3709     3.7639    -0.4469 H       
  37 H37            4.4346     3.1241     1.6849 H       
  38 H38            5.9122     2.6382     0.8180 H       
  39 H39            4.7131     5.4451     0.8733 H       
  40 H40            6.1593     4.9127     1.7636 H       
  41 H41            4.7634     5.5668    -1.5350 H       
  42 H42            6.2465     5.1238    -2.4135 H       
  43 H43            5.9650     2.7661    -1.7131 H       
  44 H44            4.5238     3.3400    -2.5873 H       
  45 H45            7.5614     6.4571     0.6930 H       
  46 H46            8.7612     5.8329    -1.3700 H       
  47 H47            7.4073     6.4362    -2.3567 H       
  48 H48            9.1046     8.1008    -0.4415 H       
  49 H49            9.2112     8.1260    -2.2179 H       
  50 H50            7.1284     8.9440     0.6544 H       
  51 H51            5.7836     9.5884    -0.3170 H       
  52 H52            5.3304     7.3224    -1.2049 H       
  53 H53            5.2556     7.3286     0.5742 H       
  54 H54            8.3722    10.6353    -0.5332 H       
  55 H55            8.8012    10.3572    -2.2381 H       
  56 H56            5.1686    12.1945    -4.6855 H       
  57 H57            4.0982    13.6710    -3.0316 H       
  58 H58            4.8190    13.6109    -0.6780 H       
  59 H59            6.6065    12.0704     0.0239 H       
@<TRIPOS>BOND
   1    1   26 1
   2    2    3 ar
   3    2    7 ar
   4    2   31 1
   5    3    4 ar
   6    3   32 1
   7    4    5 ar
   8    4   33 1
   9    5    6 ar
  10    5    8 1
  11    6    7 ar
  12    6   10 1
  13    7   34 1
  14    8    9 am
  15    8   35 1
  16    9   10 am
  17    9   17 2
  18   10   11 1
  19   11   12 1
  20   11   16 1
  21   11   36 1
  22   12   13 1
  23   12   37 1
  24   12   38 1
  25   13   14 1
  26   13   39 1
  27   13   40 1
  28   14   15 1
  29   14   18 1
  30   15   16 1
  31   15   41 1
  32   15   42 1
  33   16   43 1
  34   16   44 1
  35   18   19 1
  36   18   23 1
  37   18   45 1
  38   19   20 1
  39   19   46 1
  40   19   47 1
  41   20   21 1
  42   20   48 1
  43   20   49 1
  44   21   22 1
  45   21   24 1
  46   22   23 1
  47   22   50 1
  48   22   51 1
  49   23   52 1
  50   23   53 1
  51   24   25 1
  52   24   54 1
  53   24   55 1
  54   25   26 ar
  55   25   30 ar
  56   26   27 ar
  57   27   28 ar
  58   27   56 1
  59   28   29 ar
  60   28   57 1
  61   29   30 ar
  62   29   58 1
  63   30   59 1

#	End of record

