#	Name: ASD08170133
#	Creating user name:	WinNT
#	Creation time:	15. 06. 2019 21:17

#	Modifying user name:	WinNT
#	Modification time:	15. 06. 2019 21:17

#	Program:	/corina/corina34_cracker 3.40 0067  02.08.2006

@<TRIPOS>MOLECULE
ASD08170133
  73   76    0    0    0
SMALL
NO_CHARGES


@<TRIPOS>ATOM
   1 C1            -0.0184     1.5028     0.0103 C.3     
   2 C2             1.3963     3.5622     0.0079 C.3     
   3 C3             2.8317     4.0918    -0.0030 C.3     
   4 C4             2.8112     5.5986     0.0053 C.2     
   5 C5             0.0021    -0.0041     0.0020 C.2     
   6 S6             2.7835     6.6466    -1.4134 S.3     
   7 C7             2.7747     8.0128    -0.3799 C.2     
   8 N8             2.7920     7.6028     0.8524 N.2     
   9 N9             2.8052     6.3568     1.0554 N.2     
  10 S10            0.0026    -1.0367    -1.4281 S.3     
  11 N11            0.0281    -0.7735     1.0436 N.2     
  12 N12            0.0418    -2.0172     0.8270 N.2     
  13 C13            0.0310    -2.4140    -0.4097 C.2     
  14 N14            0.0424    -3.7376    -0.8365 N.am    
  15 C15            0.0674    -4.7369     0.0675 C.2     
  16 O16            0.0798    -4.4819     1.2531 O.2     
  17 N17            2.7527     9.3409    -0.7922 N.am    
  18 C18            2.7480    10.3305     0.1228 C.2     
  19 C19            2.7241    11.7696    -0.3239 C.3     
  20 O20            2.7628    10.0628     1.3056 O.2     
  21 C21            0.0798    -6.1712    -0.3949 C.3     
  22 C22            2.7233    12.6843     0.9026 C.3     
  23 C23            0.1080    -7.0989     0.8213 C.3     
  24 C24            1.4170     2.0324    -0.0006 C.3     
  25 C25           -1.1716    -6.9428     1.6020 C.2     
  26 O26           -1.3698    -7.6635     2.7169 O.3     
  27 C27            4.0205    12.5209     1.6520 C.2     
  28 O28            4.8596    11.7517     1.2467 O.2     
  29 C29            0.2442    -8.5273     0.3605 C.ar    
  30 C30            1.3317    -9.2816     0.7597 C.ar    
  31 C31            1.4567   -10.5918     0.3370 C.ar    
  32 C32            0.4940   -11.1478    -0.4846 C.ar    
  33 C33           -0.5940   -10.3938    -0.8830 C.ar    
  34 C34           -0.7212    -9.0849    -0.4567 C.ar    
  35 O35           -2.0191    -6.1689     1.2242 O.2     
  36 C36            2.5758    14.1174     0.4603 C.ar    
  37 C37            1.4973    14.8665     0.8923 C.ar    
  38 C38            3.5219    14.6845    -0.3728 C.ar    
  39 C39            3.3866    15.9990    -0.7785 C.ar    
  40 C40            2.3049    16.7463    -0.3514 C.ar    
  41 C41            1.3619    16.1810     0.4866 C.ar    
  42 O42            4.2438    13.2298     2.7697 O.3     
  43 C43            5.5151    13.0215     3.4395 C.3     
  44 H44           -0.5455     1.8639    -0.8728 H       
  45 H45           -0.5286     1.8543     0.9071 H       
  46 H46            0.8861     3.9137     0.9047 H       
  47 H47            0.8691     3.9233    -0.8752 H       
  48 H48            3.3588     3.7307     0.8801 H       
  49 H49            3.3418     3.7402    -0.8998 H       
  50 H50            0.0325    -3.9415    -1.7848 H       
  51 H51            2.7409     9.5550    -1.7382 H       
  52 H52            3.6057    11.9763    -0.9307 H       
  53 H53            1.8260    11.9521    -0.9138 H       
  54 H54           -0.8155    -6.3709    -0.9836 H       
  55 H55            0.9641    -6.3478    -1.0073 H       
  56 H56            1.8912    12.4176     1.5542 H       
  57 H57            0.9550    -6.8397     1.4565 H       
  58 H58            1.9442     1.6713     0.8825 H       
  59 H59            1.9272     1.6808    -0.8974 H       
  60 H60           -2.2059    -7.5291     3.1837 H       
  61 H61            2.0839    -8.8472     1.4015 H       
  62 H62            2.3067   -11.1808     0.6482 H       
  63 H63            0.5920   -12.1712    -0.8154 H       
  64 H64           -1.3460   -10.8281    -1.5251 H       
  65 H65           -1.5712    -8.4958    -0.7680 H       
  66 H66            0.7603    14.4246     1.5465 H       
  67 H67            4.3670    14.1007    -0.7065 H       
  68 H68            4.1261    16.4423    -1.4288 H       
  69 H69            2.1993    17.7734    -0.6681 H       
  70 H70            0.5169    16.7648     0.8203 H       
  71 H71            5.6038    11.9756     3.7335 H       
  72 H72            6.3292    13.2788     2.7620 H       
  73 H73            5.5666    13.6536     4.3260 H       
@<TRIPOS>BOND
   1    1    5 1
   2    1   24 1
   3    1   44 1
   4    1   45 1
   5    2    3 1
   6    2   24 1
   7    2   46 1
   8    2   47 1
   9    3    4 1
  10    3   48 1
  11    3   49 1
  12    4    6 1
  13    4    9 2
  14    5   10 1
  15    5   11 2
  16    6    7 1
  17    7    8 2
  18    7   17 1
  19    8    9 1
  20   10   13 1
  21   11   12 1
  22   12   13 2
  23   13   14 1
  24   14   15 am
  25   14   50 1
  26   15   16 2
  27   15   21 1
  28   17   18 am
  29   17   51 1
  30   18   19 1
  31   18   20 2
  32   19   22 1
  33   19   52 1
  34   19   53 1
  35   21   23 1
  36   21   54 1
  37   21   55 1
  38   22   27 1
  39   22   36 1
  40   22   56 1
  41   23   25 1
  42   23   29 1
  43   23   57 1
  44   24   58 1
  45   24   59 1
  46   25   26 1
  47   25   35 2
  48   26   60 1
  49   27   28 2
  50   27   42 1
  51   29   30 ar
  52   29   34 ar
  53   30   31 ar
  54   30   61 1
  55   31   32 ar
  56   31   62 1
  57   32   33 ar
  58   32   63 1
  59   33   34 ar
  60   33   64 1
  61   34   65 1
  62   36   37 ar
  63   36   38 ar
  64   37   41 ar
  65   37   66 1
  66   38   39 ar
  67   38   67 1
  68   39   40 ar
  69   39   68 1
  70   40   41 ar
  71   40   69 1
  72   41   70 1
  73   42   43 1
  74   43   71 1
  75   43   72 1
  76   43   73 1

#	End of record

