#	Name: ASD01885014
#	Creating user name:	WinNT
#	Creation time:	15. 06. 2019 19:49

#	Modifying user name:	WinNT
#	Modification time:	15. 06. 2019 19:49

#	Program:	/corina/corina34_cracker 3.40 0067  02.08.2006

@<TRIPOS>MOLECULE
ASD01885014
  53   56    0    0    0
SMALL
NO_CHARGES


@<TRIPOS>ATOM
   1 C1            -0.4406     1.2695     0.2472 C.3     
   2 C2            -0.1584    -0.2329     0.1824 C.3     
   3 H3            -1.0921    -0.7836     0.2965 H       
   4 C4             0.4741    -0.5752    -1.1654 C.3     
   5 N5             1.0421    -1.9186    -1.1938 N.am    
   6 C6             1.7247    -2.4212    -0.1366 C.2     
   7 O7             2.3662    -3.4515    -0.2179 O.2     
   8 C8             1.6475    -1.6519     1.1145 C.2     
   9 C9             2.3371    -1.7609     2.2892 C.2     
  10 C10            3.4076    -2.7637     2.6348 C.3     
  11 C11            4.7614    -2.2581     2.1322 C.3     
  12 C12            5.8319    -3.2609     2.4778 C.ar    
  13 C13            6.4998    -3.1688     3.6857 C.ar    
  14 C14            7.4842    -4.0855     4.0108 C.ar    
  15 C15            7.8052    -5.0983     3.1311 C.ar    
  16 C16            7.1348    -5.1973     1.9107 C.ar    
  17 C17            6.1398    -4.2723     1.5911 C.ar    
  18 C18            7.4741    -6.2800     0.9629 C.2     
  19 N19            8.4325    -7.1742     1.2763 N.am    
  20 O20            6.8886    -6.3637    -0.0991 O.2     
  21 C21            1.8326    -0.7372     3.1025 C.2     
  22 N22            0.9119    -0.0957     2.4213 N.2     
  23 N23            0.7648    -0.6049     1.2613 N.pl3   
  24 C24            0.8782    -2.7058    -2.3379 C.ar    
  25 C25            0.0869    -3.8463    -2.2904 C.ar    
  26 C26           -0.0734    -4.6213    -3.4223 C.ar    
  27 C27            0.5529    -4.2628    -4.6019 C.ar    
  28 C28            1.3414    -3.1279    -4.6525 C.ar    
  29 C29            1.5016    -2.3457    -3.5257 C.ar    
  30 C30            0.3762    -5.1112    -5.8349 C.3     
  31 F31           -0.7321    -4.6575    -6.5581 F       
  32 F32            1.5223    -5.0200    -6.6319 F       
  33 F33            0.1742    -6.4436    -5.4592 F       
  34 H34            0.4933     1.8199     0.1331 H       
  35 H35           -1.1253     1.5455    -0.5547 H       
  36 H36           -0.8909     1.5134     1.2095 H       
  37 H37           -0.2875    -0.4983    -1.9415 H       
  38 H38            1.2638     0.1457    -1.3771 H       
  39 H39            3.4474    -2.8946     3.7162 H       
  40 H40            3.1777    -3.7183     2.1614 H       
  41 H41            4.7216    -2.1272     1.0508 H       
  42 H42            4.9913    -1.3036     2.6055 H       
  43 H43            6.2522    -2.3777     4.3780 H       
  44 H44            8.0024    -4.0076     4.9551 H       
  45 H45            8.5739    -5.8129     3.3858 H       
  46 H46            5.6145    -4.3458     0.6503 H       
  47 H47            8.8997    -7.1074     2.1237 H       
  48 H48            8.6551    -7.8846     0.6544 H       
  49 H49            2.1459    -0.5154     4.1120 H       
  50 H50           -0.4022    -4.1270    -1.3694 H       
  51 H51           -0.6883    -5.5084    -3.3859 H       
  52 H52            1.8295    -2.8510    -5.5753 H       
  53 H53            2.1139    -1.4570    -3.5670 H       
@<TRIPOS>BOND
   1    1    2 1
   2    1   34 1
   3    1   35 1
   4    1   36 1
   5    2    3 1
   6    2   23 1
   7    2    4 1
   8    4    5 1
   9    4   37 1
  10    4   38 1
  11    5    6 am
  12    5   24 1
  13    6    7 2
  14    6    8 1
  15    8   23 1
  16    8    9 2
  17    9   10 1
  18    9   21 1
  19   10   11 1
  20   10   39 1
  21   10   40 1
  22   11   12 1
  23   11   41 1
  24   11   42 1
  25   12   17 ar
  26   12   13 ar
  27   13   14 ar
  28   13   43 1
  29   14   15 ar
  30   14   44 1
  31   15   16 ar
  32   15   45 1
  33   16   17 ar
  34   16   18 1
  35   17   46 1
  36   18   19 am
  37   18   20 2
  38   19   47 1
  39   19   48 1
  40   21   22 2
  41   21   49 1
  42   22   23 1
  43   24   29 ar
  44   24   25 ar
  45   25   26 ar
  46   25   50 1
  47   26   27 ar
  48   26   51 1
  49   27   28 ar
  50   27   30 1
  51   28   29 ar
  52   28   52 1
  53   29   53 1
  54   30   31 1
  55   30   32 1
  56   30   33 1

#	End of record

