#	Name: ASD04230088
#	Creating user name:	WinNT
#	Creation time:	15. 06. 2019 20:48

#	Modifying user name:	WinNT
#	Modification time:	15. 06. 2019 20:48

#	Program:	/corina/corina34_cracker 3.40 0067  02.08.2006

@<TRIPOS>MOLECULE
ASD04230088
  55   59    0    0    0
SMALL
NO_CHARGES


@<TRIPOS>ATOM
   1 C1             1.5359     4.6863     1.7199 C.ar    
   2 C2             2.5438     5.3841     2.3697 C.ar    
   3 C3             3.8003     4.8590     2.4683 C.ar    
   4 C4             4.0824     3.6081     1.9006 C.ar    
   5 C5             3.0563     2.8818     1.2694 C.ar    
   6 C6             1.7831     3.4397     1.1728 C.ar    
   7 C7             5.3933     3.0678     1.9622 C.2     
   8 C8             5.6627     1.9284     1.2158 C.2     
   9 C9             4.5671     1.3877     0.3906 C.2     
  10 O10            3.2978     1.6423     0.7795 O.3     
  11 C11            6.9878     1.2871     1.2467 C.2     
  12 N12            7.2188     0.1818     0.5109 N.am    
  13 O13            7.8739     1.7548     1.9362 O.2     
  14 C14            8.5059    -0.3623     0.4514 C.ar    
  15 C15            8.6753    -1.7390     0.3692 C.ar    
  16 C16            9.9457    -2.2804     0.3098 C.ar    
  17 C17           11.0532    -1.4567     0.3322 C.ar    
  18 C18           10.8928    -0.0742     0.4145 C.ar    
  19 C19            9.6134     0.4724     0.4687 C.ar    
  20 C20           12.0820     0.8123     0.4392 C.ar    
  21 O21            4.7981     0.7334    -0.6089 O.2     
  22 C22           11.9114     2.2034     0.5223 C.ar    
  23 C23           12.9838     3.0367     0.5465 C.ar    
  24 C24           14.2860     2.5083     0.4880 C.ar    
  25 C25           14.4700     1.1045     0.4040 C.ar    
  26 C26           13.3488     0.2613     0.3860 C.ar    
  27 C27           15.4102     3.3495     0.5109 C.ar    
  28 C28           16.6624     2.8067     0.4523 C.ar    
  29 C29           16.8414     1.4222     0.3691 C.ar    
  30 C30           15.7742     0.5801     0.3453 C.ar    
  31 O31           17.7485     3.6229     0.4747 O.3     
  32 C32           19.0316     2.9972     0.4107 C.3     
  33 O33            0.7869     2.7610     0.5437 O.3     
  34 C34           -0.4923     3.3951     0.4832 C.3     
  35 F35           -0.3780     4.6117    -0.1980 F       
  36 F36           -1.3928     2.5649    -0.1929 F       
  37 F37           -0.9585     3.6294     1.7812 F       
  38 H38            0.5488     5.1179     1.6445 H       
  39 H39            2.3327     6.3514     2.8011 H       
  40 H40            4.5762     5.4066     2.9827 H       
  41 H41            6.1575     3.5287     2.5705 H       
  42 H42            6.4925    -0.2363     0.0226 H       
  43 H43            7.8121    -2.3878     0.3520 H       
  44 H44           10.0722    -3.3510     0.2460 H       
  45 H45           12.0443    -1.8834     0.2863 H       
  46 H46            9.4840     1.5428     0.5322 H       
  47 H47           10.9145     2.6163     0.5672 H       
  48 H48           12.8366     4.1047     0.6102 H       
  49 H49           13.4742    -0.8096     0.3226 H       
  50 H50           15.2855     4.4204     0.5743 H       
  51 H51           17.8412     1.0163     0.3236 H       
  52 H52           15.9270    -0.4871     0.2812 H       
  53 H53           19.1516     2.3265     1.2615 H       
  54 H54           19.1123     2.4276    -0.5151 H       
  55 H55           19.8096     3.7602     0.4369 H       
@<TRIPOS>BOND
   1    1    2 ar
   2    1    6 ar
   3    1   38 1
   4    2    3 ar
   5    2   39 1
   6    3    4 ar
   7    3   40 1
   8    4    5 ar
   9    4    7 1
  10    5    6 ar
  11    5   10 1
  12    6   33 1
  13    7    8 2
  14    7   41 1
  15    8    9 1
  16    8   11 1
  17    9   10 1
  18    9   21 2
  19   11   12 am
  20   11   13 2
  21   12   14 1
  22   12   42 1
  23   14   15 ar
  24   14   19 ar
  25   15   16 ar
  26   15   43 1
  27   16   17 ar
  28   16   44 1
  29   17   18 ar
  30   17   45 1
  31   18   19 ar
  32   18   20 1
  33   19   46 1
  34   20   22 ar
  35   20   26 ar
  36   22   23 ar
  37   22   47 1
  38   23   24 ar
  39   23   48 1
  40   24   25 ar
  41   24   27 ar
  42   25   26 ar
  43   25   30 ar
  44   26   49 1
  45   27   28 ar
  46   27   50 1
  47   28   29 ar
  48   28   31 1
  49   29   30 ar
  50   29   51 1
  51   30   52 1
  52   31   32 1
  53   32   53 1
  54   32   54 1
  55   32   55 1
  56   33   34 1
  57   34   35 1
  58   34   36 1
  59   34   37 1

#	End of record

