#	Name: ASD07010001
#	Creating user name:	WinNT
#	Creation time:	15. 06. 2019 21:08

#	Modifying user name:	WinNT
#	Modification time:	15. 06. 2019 21:08

#	Program:	/corina/corina34_cracker 3.40 0067  02.08.2006

@<TRIPOS>MOLECULE
ASD07010001
  31   33    0    0    0
SMALL
NO_CHARGES


@<TRIPOS>ATOM
   1 Cl1            6.1586     1.1360    -0.0488 Cl      
   2 S2            -0.0218     1.7538     0.0117 S.3     
   3 F3            -2.4319    -1.7907     3.8971 F       
   4 F4            -6.0236    -4.3342     2.0724 F       
   5 O5            -1.5983    -1.1639     1.3594 O.3     
   6 O6            -5.4883    -2.6932     4.9496 O.2     
   7 N7             1.2077    -0.4354    -0.0118 N.2     
   8 N8             2.5932     2.8111    -0.0076 N.ar    
   9 N9            -4.2180    -4.5149     4.9878 N.am    
  10 C10           -1.2241    -0.8802     0.0098 C.3     
  11 C11            0.0021    -0.0041     0.0020 C.2     
  12 C12            2.2033     0.4697    -0.0164 C.ar    
  13 C13           -2.6936    -1.9486     1.5446 C.ar    
  14 C14            1.7408     1.7908    -0.0049 C.ar    
  15 C15           -3.1113    -2.2626     2.8289 C.ar    
  16 C16           -4.2379    -3.0698     3.0145 C.ar    
  17 C17           -3.3946    -2.4292     0.4484 C.ar    
  18 C18            3.5999     0.2588    -0.0305 C.ar    
  19 C19           -4.9342    -3.5538     1.9017 C.ar    
  20 C20           -4.5093    -3.2277     0.6277 C.ar    
  21 C21            4.4364     1.3536    -0.0322 C.ar    
  22 C22            3.8949     2.6309    -0.0210 C.ar    
  23 C23           -4.6900    -3.4099     4.3774 C.2     
  24 H24           -1.0074    -1.8129    -0.5109 H       
  25 H25           -2.0421    -0.3647    -0.4934 H       
  26 H26           -3.0685    -2.1782    -0.5501 H       
  27 H27            4.0047    -0.7425    -0.0393 H       
  28 H28           -5.0499    -3.5976    -0.2309 H       
  29 H29            4.5517     3.4883    -0.0230 H       
  30 H30           -4.5151    -4.7384     5.8837 H       
  31 H31           -3.5811    -5.0866     4.5313 H       
@<TRIPOS>BOND
   1    1   21 1
   2    2   11 1
   3    2   14 1
   4    3   15 1
   5    4   19 1
   6    5   10 1
   7    5   13 1
   8    6   23 2
   9    7   11 2
  10    7   12 1
  11    8   14 ar
  12    8   22 ar
  13    9   23 am
  14    9   30 1
  15    9   31 1
  16   10   11 1
  17   10   24 1
  18   10   25 1
  19   12   14 ar
  20   12   18 ar
  21   13   15 ar
  22   13   17 ar
  23   15   16 ar
  24   16   19 ar
  25   16   23 1
  26   17   20 ar
  27   17   26 1
  28   18   21 ar
  29   18   27 1
  30   19   20 ar
  31   20   28 1
  32   21   22 ar
  33   22   29 1

#	End of record

