#	Name: ASD01814102
#	Creating user name:	WinNT
#	Creation time:	15. 06. 2019 19:31

#	Modifying user name:	WinNT
#	Modification time:	15. 06. 2019 19:31

#	Program:	/corina/corina34_cracker 3.40 0067  02.08.2006

@<TRIPOS>MOLECULE
ASD01814102
  47   51    0    0    0
SMALL
NO_CHARGES


@<TRIPOS>ATOM
   1 C1             7.3397     1.2113    -0.2184 C.ar    
   2 C2             7.2564    -0.1726    -0.2195 C.ar    
   3 C3             6.0315    -0.8057    -0.1592 C.ar    
   4 C4             4.8605    -0.0527    -0.0959 C.ar    
   5 C5             4.9465     1.3500    -0.0944 C.ar    
   6 C6             6.1932     1.9776    -0.1562 C.ar    
   7 N7             3.6307    -0.6740    -0.0363 N.pl3   
   8 C8             2.4778     0.0042     0.0248 C.2     
   9 C9             2.4357     1.3839     0.0323 C.2     
  10 C10            3.7008     2.1343    -0.0270 C.2     
  11 O11            3.7171     3.3529    -0.0225 O.2     
  12 C12            1.1496     2.0917     0.0993 C.2     
  13 O13            1.1215     3.4395     0.1059 O.3     
  14 O14            0.1110     1.4619     0.1487 O.2     
  15 C15            3.5837    -2.1382    -0.0406 C.3     
  16 C16            3.4403    -2.6321    -1.4571 C.ar    
  17 C17            4.5588    -2.7763    -2.2538 C.ar    
  18 C18            4.4258    -3.2316    -3.5593 C.ar    
  19 C19            3.1675    -3.5402    -4.0590 C.ar    
  20 C20            2.0525    -3.3937    -3.2569 C.ar    
  21 C21            2.1890    -2.9457    -1.9560 C.ar    
  22 F22            5.9677    -2.1551    -0.1621 F       
  23 F23            6.2762     3.3261    -0.1544 F       
  24 N24            5.5579    -3.3786    -4.3699 N.pl3   
  25 C25            5.7396    -4.3576    -5.3151 C.ar    
  26 C26            7.0050    -4.1341    -5.8915 C.ar    
  27 C27            7.5579    -2.9593    -5.2247 C.2     
  28 N28            6.6832    -2.5479    -4.3512 N.2     
  29 C29            4.9658    -5.4271    -5.7571 C.ar    
  30 C30            5.4386    -6.2473    -6.7423 C.ar    
  31 C31            6.6867    -6.0286    -7.3124 C.ar    
  32 C32            7.4669    -4.9876    -6.8995 C.ar    
  33 H33            8.3060     1.6918    -0.2619 H       
  34 H34            8.1601    -0.7619    -0.2684 H       
  35 H35            1.5499    -0.5466     0.0694 H       
  36 H36            0.2521     3.8602     0.1510 H       
  37 H37            4.5040    -2.5325     0.3903 H       
  38 H38            2.7321    -2.4761     0.5500 H       
  39 H39            5.5361    -2.5351    -1.8623 H       
  40 H40            3.0607    -3.8941    -5.0738 H       
  41 H41            1.0736    -3.6336    -3.6450 H       
  42 H42            1.3157    -2.8323    -1.3308 H       
  43 H43            8.5194    -2.5091    -5.4228 H       
  44 H44            3.9941    -5.6083    -5.3220 H       
  45 H45            4.8349    -7.0760    -7.0818 H       
  46 H46            7.0428    -6.6884    -8.0897 H       
  47 H47            8.4358    -4.8240    -7.3478 H       
@<TRIPOS>BOND
   1    1    2 ar
   2    1    6 ar
   3    1   33 1
   4    2    3 ar
   5    2   34 1
   6    3    4 ar
   7    3   22 1
   8    4    5 ar
   9    4    7 1
  10    5    6 ar
  11    5   10 1
  12    6   23 1
  13    7    8 1
  14    7   15 1
  15    8    9 2
  16    8   35 1
  17    9   10 1
  18    9   12 1
  19   10   11 2
  20   12   13 1
  21   12   14 2
  22   13   36 1
  23   15   16 1
  24   15   37 1
  25   15   38 1
  26   16   17 ar
  27   16   21 ar
  28   17   18 ar
  29   17   39 1
  30   18   19 ar
  31   18   24 1
  32   19   20 ar
  33   19   40 1
  34   20   21 ar
  35   20   41 1
  36   21   42 1
  37   24   25 1
  38   24   28 1
  39   25   26 ar
  40   25   29 ar
  41   26   27 1
  42   26   32 ar
  43   27   28 2
  44   27   43 1
  45   29   30 ar
  46   29   44 1
  47   30   31 ar
  48   30   45 1
  49   31   32 ar
  50   31   46 1
  51   32   47 1

#	End of record

