#	Name: ASD03091023
#	Creating user name:	WinNT
#	Creation time:	15. 06. 2019 20:29

#	Modifying user name:	WinNT
#	Modification time:	15. 06. 2019 20:29

#	Program:	/corina/corina34_cracker 3.40 0067  02.08.2006

@<TRIPOS>MOLECULE
ASD03091023
  52   56    0    0    0
SMALL
NO_CHARGES


@<TRIPOS>ATOM
   1 N1            -0.1348     1.3961    -0.1136 N.am    
   2 C2            -0.0237     0.0197    -0.0234 C.2     
   3 N3            -0.8876    -0.7300     0.5853 N.2     
   4 C4            -2.0149    -0.3286     1.2310 C.ar    
   5 C5            -2.5406     0.9548     1.0321 C.ar    
   6 S6            -1.6835     2.0225    -0.0821 S.o2    
   7 O7            -1.6075     3.2975     0.5407 O.2     
   8 C8            -2.6723    -1.1959     2.1106 C.ar    
   9 C9            -3.8137    -0.7823     2.7616 C.ar    
  10 C10           -4.3224     0.4947     2.5545 C.ar    
  11 C11           -3.6754     1.3654     1.6811 C.ar    
  12 N12           -5.4815     0.9036     3.2206 N.3     
  13 C13           -6.6754     0.6569     2.3999 C.3     
  14 C14           -5.3982     2.3189     3.6006 C.3     
  15 C15           -6.5503     2.7470     4.4962 C.3     
  16 N16           -7.8345     2.6082     3.7927 N.3     
  17 C17           -7.8228     2.8991     2.3751 C.3     
  18 C18           -6.9880     1.9014     1.5893 C.3     
  19 C19           -7.8328     0.1945     3.2723 C.3     
  20 C20           -8.4402     1.3057     4.1045 C.3     
  21 C21            1.1423    -0.6300    -0.6556 C.ar    
  22 C22            1.9852    -1.4472     0.1000 C.ar    
  23 C23            3.0722    -2.0513    -0.4966 C.ar    
  24 C24            3.3298    -1.8499    -1.8414 C.ar    
  25 C25            2.5009    -1.0418    -2.5979 C.ar    
  26 C26            1.4044    -0.4342    -2.0154 C.ar    
  27 C27            1.0438     2.2591    -0.2245 C.3     
  28 O28           -2.2372     1.8062    -1.3728 O.2     
  29 F29            0.5945     0.3549    -2.7548 F       
  30 H30           -2.2850    -2.1899     2.2788 H       
  31 H31           -4.3174    -1.4559     3.4391 H       
  32 H32           -4.0659     2.3588     1.5163 H       
  33 H33           -6.4416    -0.1421     1.6963 H       
  34 H34           -4.4593     2.4882     4.1278 H       
  35 H35           -5.4083     2.9282     2.6969 H       
  36 H36           -6.5612     2.1232     5.3900 H       
  37 H37           -6.4110     3.7881     4.7874 H       
  38 H38           -8.8464     2.8758     2.0010 H       
  39 H39           -7.4154     3.8986     2.2227 H       
  40 H40           -6.0523     2.3766     1.2947 H       
  41 H41           -7.5342     1.6116     0.6917 H       
  42 H42           -8.6078    -0.2254     2.6310 H       
  43 H43           -7.4751    -0.5879     3.9416 H       
  44 H44           -8.2851     1.0848     5.1606 H       
  45 H45           -9.5109     1.3545     3.9060 H       
  46 H46            1.7867    -1.6057     1.1496 H       
  47 H47            3.7247    -2.6832     0.0876 H       
  48 H48            4.1826    -2.3259    -2.3022 H       
  49 H49            2.7081    -0.8887    -3.6467 H       
  50 H50            1.9464     1.6556    -0.1284 H       
  51 H51            1.0404     2.7557    -1.1948 H       
  52 H52            1.0215     3.0080     0.5671 H       
@<TRIPOS>BOND
   1    1    2 1
   2    1   27 1
   3    1    6 am
   4    2    3 2
   5    2   21 1
   6    3    4 1
   7    4    5 ar
   8    4    8 ar
   9    5    6 1
  10    5   11 ar
  11    6    7 2
  12    6   28 2
  13    8    9 ar
  14    8   30 1
  15    9   10 ar
  16    9   31 1
  17   10   11 ar
  18   10   12 1
  19   11   32 1
  20   12   14 1
  21   12   13 1
  22   13   19 1
  23   13   18 1
  24   13   33 1
  25   14   15 1
  26   14   34 1
  27   14   35 1
  28   15   16 1
  29   15   36 1
  30   15   37 1
  31   16   17 1
  32   16   20 1
  33   17   18 1
  34   17   38 1
  35   17   39 1
  36   18   40 1
  37   18   41 1
  38   19   20 1
  39   19   42 1
  40   19   43 1
  41   20   44 1
  42   20   45 1
  43   21   22 ar
  44   21   26 ar
  45   22   23 ar
  46   22   46 1
  47   23   24 ar
  48   23   47 1
  49   24   25 ar
  50   24   48 1
  51   25   26 ar
  52   25   49 1
  53   26   29 1
  54   27   50 1
  55   27   51 1
  56   27   52 1

#	End of record

