#	Name: ASD03200087
#	Creating user name:	WinNT
#	Creation time:	15. 06. 2019 20:34

#	Modifying user name:	WinNT
#	Modification time:	15. 06. 2019 20:34

#	Program:	/corina/corina34_cracker 3.40 0067  02.08.2006

@<TRIPOS>MOLECULE
ASD03200087
  24   25    0    0    0
SMALL
NO_CHARGES


@<TRIPOS>ATOM
   1 C1            -0.0127     1.0858     0.0080 C.3     
   2 C2            -0.7416     1.5850    -1.2129 C.2     
   3 C3            -3.2653     2.8347    -3.8944 C.ar    
   4 C4            -2.3162     2.3923    -2.9750 C.ar    
   5 C5            -1.5397     3.0799    -5.5443 C.ar    
   6 C6            -0.6029     2.6497    -4.6559 C.ar    
   7 C7            -0.9697     2.2929    -3.3407 C.ar    
   8 C8            -2.8798     3.1683    -5.1780 C.ar    
   9 C9            -3.3307     3.9461    -7.3793 C.3     
  10 C10           -4.5064     4.4054    -8.2440 C.3     
  11 O11           -3.8044     3.5998    -6.0764 O.3     
  12 S12           -2.4702     1.8963    -1.2915 S.3     
  13 N13           -0.1884     1.8474    -2.3371 N.2     
  14 H14            0.0021    -0.0041     0.0020 H       
  15 H15            1.0099     1.4631     0.0003 H       
  16 H16           -0.5229     1.4373     0.9048 H       
  17 H17           -4.3022     2.9163    -3.6034 H       
  18 H18           -1.2424     3.3420    -6.5489 H       
  19 H19            0.4320     2.5873    -4.9582 H       
  20 H20           -2.8603     3.0764    -7.8380 H       
  21 H21           -2.6022     4.7529    -7.2985 H       
  22 H22           -4.9768     5.2751    -7.7853 H       
  23 H23           -4.1451     4.6696    -9.2379 H       
  24 H24           -5.2350     3.5987    -8.3248 H       
@<TRIPOS>BOND
   1    1   14 1
   2    1   15 1
   3    1   16 1
   4    1    2 1
   5    2   12 1
   6    2   13 2
   7    3    4 ar
   8    3   17 1
   9    3    8 ar
  10    4   12 1
  11    4    7 ar
  12    5    8 ar
  13    5    6 ar
  14    5   18 1
  15    6    7 ar
  16    6   19 1
  17    7   13 1
  18    8   11 1
  19    9   11 1
  20    9   20 1
  21    9   21 1
  22    9   10 1
  23   10   22 1
  24   10   23 1
  25   10   24 1

#	End of record

