#	Name: ASD01410685
#	Creating user name:	WinNT
#	Creation time:	15. 06. 2019 19:18

#	Modifying user name:	WinNT
#	Modification time:	15. 06. 2019 19:18

#	Program:	/corina/corina34_cracker 3.40 0067  02.08.2006

@<TRIPOS>MOLECULE
ASD01410685
  67   70    0    0    0
SMALL
NO_CHARGES


@<TRIPOS>ATOM
   1 C1             0.9195    -1.9439    -3.0089 C.ar    
   2 C2             0.9860    -2.5384    -1.7565 C.ar    
   3 C3             2.2005    -2.6015    -1.1022 C.ar    
   4 N4             3.2917    -2.1047    -1.6525 N.ar    
   5 C5             3.2686    -1.5306    -2.8442 C.ar    
   6 C6             2.0820    -1.4326    -3.5595 C.ar    
   7 O7             4.4147    -1.0329    -3.3726 O.3     
   8 C8             5.5379    -1.0668    -2.6072 C.ar    
   9 C9             6.1694    -2.2795    -2.3573 C.ar    
  10 C10            7.3100    -2.3253    -1.5817 C.ar    
  11 C11            7.8352    -1.1579    -1.0449 C.ar    
  12 C12            7.2023     0.0698    -1.2935 C.ar    
  13 C13            6.0514     0.1061    -2.0845 C.ar    
  14 N14            8.9864    -1.2048    -0.2616 N.am    
  15 C15           10.1890    -1.3884    -0.8416 C.2     
  16 C16            8.8897    -1.0546     1.1924 C.3     
  17 O17           11.1794    -1.5393    -0.1528 O.2     
  18 C18           10.3038    -1.4062    -2.3136 C.ar    
  19 C19            9.3506    -0.7549    -3.0999 C.ar    
  20 C20            9.4636    -0.7754    -4.4736 C.ar    
  21 C21           10.5187    -1.4393    -5.0763 C.ar    
  22 C22           11.4669    -2.0867    -4.3070 C.ar    
  23 C23           11.3705    -2.0703    -2.9273 C.ar    
  24 C24            9.9096    -0.0176     1.6670 C.3     
  25 C25            9.1784    -2.3985     1.8643 C.3     
  26 C26           -0.2539    -3.1085    -1.1174 C.3     
  27 O27            8.0931    -3.2956     1.6210 O.3     
  28 C28            8.2635    -4.5870     2.2087 C.3     
  29 N29           -0.4001    -4.5142    -1.5034 N.pl3   
  30 C30           10.6333    -1.4565    -6.5788 C.3     
  31 N31           -1.0371    -4.9240    -2.5427 N.2     
  32 N32            0.0957    -5.5060    -0.8521 N.2     
  33 C33           -0.2238    -6.6195    -1.4720 C.2     
  34 C34           -0.9713    -6.2354    -2.5876 C.2     
  35 F35           12.2975    -2.7032    -2.1755 F       
  36 C36            7.7519     1.3147    -0.7275 C.2     
  37 O37            8.8276     1.3023    -0.1626 O.2     
  38 O38            7.0614     2.4668    -0.8366 O.3     
  39 C39            2.0603    -0.7777    -4.9166 C.3     
  40 F40            0.7578    -0.8040    -5.4263 F       
  41 F41            2.4893     0.5488    -4.8012 F       
  42 F42            2.9139    -1.4702    -5.7822 F       
  43 H43           -0.0170    -1.8857    -3.5436 H       
  44 H44            2.2576    -3.0631    -0.1275 H       
  45 H45            5.7650    -3.1910    -2.7721 H       
  46 H46            7.7948    -3.2715    -1.3918 H       
  47 H47            5.5589     1.0471    -2.2806 H       
  48 H48            7.8853    -0.7242     1.4576 H       
  49 H49            8.5264    -0.2365    -2.6325 H       
  50 H50            8.7265    -0.2722    -5.0818 H       
  51 H51           12.2872    -2.6026    -4.7839 H       
  52 H52            9.4859     0.9816     1.5657 H       
  53 H53           10.1569    -0.2031     2.7122 H       
  54 H54           10.8126    -0.0924     1.0611 H       
  55 H55           10.0966    -2.8196     1.4548 H       
  56 H56            9.2939    -2.2506     2.9380 H       
  57 H57           -0.1697    -3.0364    -0.0330 H       
  58 H58           -1.1262    -2.5472    -1.4522 H       
  59 H59            8.3600    -4.4845     3.2896 H       
  60 H60            7.3979    -5.2081     1.9785 H       
  61 H61            9.1627    -5.0535     1.8063 H       
  62 H62           11.2214    -0.5999    -6.9082 H       
  63 H63           11.1236    -2.3771    -6.8953 H       
  64 H64            9.6378    -1.4049    -7.0198 H       
  65 H65            0.0402    -7.6253    -1.1805 H       
  66 H66           -1.4067    -6.8835    -3.3337 H       
  67 H67            7.4623     3.2572    -0.4499 H       
@<TRIPOS>BOND
   1    1    2 ar
   2    1    6 ar
   3    1   43 1
   4    2    3 ar
   5    2   26 1
   6    3    4 ar
   7    3   44 1
   8    4    5 ar
   9    5    6 ar
  10    5    7 1
  11    6   39 1
  12    7    8 1
  13    8    9 ar
  14    8   13 ar
  15    9   10 ar
  16    9   45 1
  17   10   11 ar
  18   10   46 1
  19   11   12 ar
  20   11   14 1
  21   12   13 ar
  22   12   36 1
  23   13   47 1
  24   14   15 am
  25   14   16 1
  26   15   17 2
  27   15   18 1
  28   16   24 1
  29   16   25 1
  30   16   48 1
  31   18   19 ar
  32   18   23 ar
  33   19   20 ar
  34   19   49 1
  35   20   21 ar
  36   20   50 1
  37   21   22 ar
  38   21   30 1
  39   22   23 ar
  40   22   51 1
  41   23   35 1
  42   24   52 1
  43   24   53 1
  44   24   54 1
  45   25   27 1
  46   25   55 1
  47   25   56 1
  48   26   29 1
  49   26   57 1
  50   26   58 1
  51   27   28 1
  52   28   59 1
  53   28   60 1
  54   28   61 1
  55   29   32 1
  56   29   31 1
  57   30   62 1
  58   30   63 1
  59   30   64 1
  60   31   34 2
  61   32   33 2
  62   33   34 1
  63   33   65 1
  64   34   66 1
  65   36   37 2
  66   36   38 1
  67   38   67 1
  68   39   40 1
  69   39   41 1
  70   39   42 1

#	End of record

