#	Name: ASD07930616
#	Creating user name:	WinNT
#	Creation time:	15. 06. 2019 21:12

#	Modifying user name:	WinNT
#	Modification time:	15. 06. 2019 21:12

#	Program:	/corina/corina34_cracker 3.40 0067  02.08.2006

@<TRIPOS>MOLECULE
ASD07930616
  42   43    0    0    0
SMALL
NO_CHARGES


@<TRIPOS>ATOM
   1 C1            -0.0045     1.4579     0.0018 C.3     
   2 N2             0.8161    -0.4268    -2.1629 N.2     
   3 N3            -0.8737    -1.7867    -1.2930 N.pl3   
   4 C4            -0.9009    -2.8254    -0.2578 C.3     
   5 C5            -1.2122    -2.1793     1.0993 C.3     
   6 S6             0.0290    -0.8851     1.4138 S.o2    
   7 N7             0.0105    -0.0070    -0.0023 N.am    
   8 C8             0.0094    -0.7319    -1.1855 C.2     
   9 C9             0.4617    -3.5183    -0.1932 C.3     
  10 C10           -1.9664    -3.8383    -0.5892 C.ar    
  11 C11           -2.3068    -4.1027    -1.9039 C.ar    
  12 C12           -3.2949    -5.0439    -2.1704 C.ar    
  13 N13           -3.9036    -5.6802    -1.1823 N.ar    
  14 C14           -3.6000    -5.4488     0.0806 C.ar    
  15 C15           -2.6247    -4.5314     0.4177 C.ar    
  16 O16           -0.4305     0.0243     2.4044 O.2     
  17 O17            1.3349    -1.4422     1.4719 O.2     
  18 N18           -3.6480    -5.3196    -3.4905 N.am    
  19 C19           -4.5287    -6.3033    -3.7611 C.2     
  20 O20           -4.9425    -7.0098    -2.8665 O.2     
  21 C21           -4.9993    -6.5252    -5.1755 C.3     
  22 O22           -5.9218    -7.6162    -5.2048 O.3     
  23 C23           -6.4314    -7.9115    -6.5068 C.3     
  24 H24            1.0194     1.8317    -0.0041 H       
  25 H25           -0.5280     1.8184    -0.8837 H       
  26 H26           -0.5159     1.8136     0.8962 H       
  27 H27            1.4306     0.3179    -2.0700 H       
  28 H28           -1.4726    -1.8434    -2.0539 H       
  29 H29           -2.2076    -1.7357     1.0754 H       
  30 H30           -1.1641    -2.9333     1.8849 H       
  31 H31            1.2311    -2.7850     0.0484 H       
  32 H32            0.4407    -4.2900     0.5762 H       
  33 H33            0.6839    -3.9735    -1.1584 H       
  34 H34           -1.8120    -3.5847    -2.7121 H       
  35 H35           -4.1182    -5.9869     0.8606 H       
  36 H36           -2.3825    -4.3486     1.4542 H       
  37 H37           -3.2598    -4.8036    -4.2143 H       
  38 H38           -5.4912    -5.6236    -5.5404 H       
  39 H39           -4.1442    -6.7552    -5.8110 H       
  40 H40           -7.1240    -8.7509    -6.4441 H       
  41 H41           -6.9530    -7.0386    -6.8994 H       
  42 H42           -5.6060    -8.1703    -7.1700 H       
@<TRIPOS>BOND
   1    1    7 1
   2    1   24 1
   3    1   25 1
   4    1   26 1
   5    2    8 2
   6    2   27 1
   7    3    4 1
   8    3    8 1
   9    3   28 1
  10    4    5 1
  11    4    9 1
  12    4   10 1
  13    5    6 1
  14    5   29 1
  15    5   30 1
  16    6    7 am
  17    6   16 2
  18    6   17 2
  19    7    8 1
  20    9   31 1
  21    9   32 1
  22    9   33 1
  23   10   11 ar
  24   10   15 ar
  25   11   12 ar
  26   11   34 1
  27   12   13 ar
  28   12   18 1
  29   13   14 ar
  30   14   15 ar
  31   14   35 1
  32   15   36 1
  33   18   19 am
  34   18   37 1
  35   19   20 2
  36   19   21 1
  37   21   22 1
  38   21   38 1
  39   21   39 1
  40   22   23 1
  41   23   40 1
  42   23   41 1
  43   23   42 1

#	End of record

