#	Name: ASD00311078
#	Creating user name:	WinNT
#	Creation time:	15. 06. 2019 18:34

#	Modifying user name:	WinNT
#	Modification time:	15. 06. 2019 18:34

#	Program:	/corina/corina34_cracker 3.40 0067  02.08.2006

@<TRIPOS>MOLECULE
ASD00311078
  36   39    0    0    0
SMALL
NO_CHARGES


@<TRIPOS>ATOM
   1 C1            -0.0167     1.3775     0.0096 C.2     
   2 C2             0.0021    -0.0041     0.0020 C.2     
   3 C3             1.2586    -0.6767    -0.0136 C.2     
   4 C4             2.4315     0.0671    -0.0208 C.2     
   5 C5             2.3575     1.4749    -0.0126 C.2     
   6 N6             1.1650     2.0901     0.0022 N.am    
   7 C7            -1.3435    -0.5754     0.0123 C.2     
   8 C8            -2.3233     0.3267     0.0268 C.2     
   9 S9            -1.6791     1.9565     0.0358 S.3     
  10 O10            3.3824     2.1371    -0.0184 O.2     
  11 C11            3.7476    -0.6123    -0.0366 C.ar    
  12 C12            4.5933    -0.4750    -1.1371 C.ar    
  13 C13            5.8181    -1.1104    -1.1459 C.ar    
  14 C14            6.2077    -1.8825    -0.0660 C.ar    
  15 C15            5.3732    -2.0225     1.0285 C.ar    
  16 C16            4.1485    -1.3873     1.0515 C.ar    
  17 O17            1.3083    -2.0293    -0.0209 O.3     
  18 C18           -1.5961    -2.0354     0.0062 C.ar    
  19 C19           -2.2065    -2.6445     1.1019 C.ar    
  20 C20           -2.4398    -4.0065     1.0899 C.ar    
  21 C21           -2.0675    -4.7654    -0.0084 C.ar    
  22 C22           -1.4615    -4.1649    -1.0967 C.ar    
  23 C23           -1.2295    -2.8043    -1.0978 C.ar    
  24 F24           -3.0311    -4.5991     2.1503 F       
  25 Cl25          -4.0154    -0.0609     0.0415 Cl      
  26 H26            1.1328     3.0595     0.0077 H       
  27 H27            4.2901     0.1272    -1.9808 H       
  28 H28            6.4737    -1.0052    -1.9976 H       
  29 H29            7.1672    -2.3782    -0.0777 H       
  30 H30            5.6829    -2.6265     1.8685 H       
  31 H31            3.4998    -1.4937     1.9084 H       
  32 H32            2.2055    -2.3898    -0.0315 H       
  33 H33           -2.4960    -2.0533     1.9581 H       
  34 H34           -2.2511    -5.8296    -0.0142 H       
  35 H35           -1.1732    -4.7613    -1.9497 H       
  36 H36           -0.7604    -2.3366    -1.9508 H       
@<TRIPOS>BOND
   1    1    2 2
   2    1    6 1
   3    1    9 1
   4    2    3 1
   5    2    7 1
   6    3    4 2
   7    3   17 1
   8    4    5 1
   9    4   11 1
  10    5    6 am
  11    5   10 2
  12    6   26 1
  13    7    8 2
  14    7   18 1
  15    8    9 1
  16    8   25 1
  17   11   12 ar
  18   11   16 ar
  19   12   13 ar
  20   12   27 1
  21   13   14 ar
  22   13   28 1
  23   14   15 ar
  24   14   29 1
  25   15   16 ar
  26   15   30 1
  27   16   31 1
  28   17   32 1
  29   18   19 ar
  30   18   23 ar
  31   19   20 ar
  32   19   33 1
  33   20   21 ar
  34   20   24 1
  35   21   22 ar
  36   21   34 1
  37   22   23 ar
  38   22   35 1
  39   23   36 1

#	End of record

