#	Name: ASD05740158
#	Creating user name:	WinNT
#	Creation time:	15. 06. 2019 21:02

#	Modifying user name:	WinNT
#	Modification time:	15. 06. 2019 21:02

#	Program:	/corina/corina34_cracker 3.40 0067  02.08.2006

@<TRIPOS>MOLECULE
ASD05740158
  60   64    0    0    0
SMALL
NO_CHARGES


@<TRIPOS>ATOM
   1 C1             0.9591     0.9945    -0.3082 C.3     
   2 O2             0.1935    -0.2033    -0.1626 O.3     
   3 C3             0.2766    -0.8478     1.0319 C.ar    
   4 C4             1.1620    -0.3997     2.0012 C.ar    
   5 C5             1.2473    -1.0539     3.2144 C.ar    
   6 C6             0.4462    -2.1603     3.4640 C.ar    
   7 C7            -0.4402    -2.6080     2.4933 C.ar    
   8 C8            -0.5280    -1.9496     1.2826 C.ar    
   9 N9             0.5324    -2.8245     4.6937 N.pl3   
  10 C10            0.8080    -2.1130     5.8451 C.ar    
  11 N11            0.8833    -0.7884     5.7752 N.ar    
  12 N12            0.9818    -2.7770     6.9784 N.ar    
  13 C13            1.2474    -2.1260     8.1035 C.ar    
  14 C14            1.3403    -0.7172     8.0664 C.ar    
  15 C15            1.1436    -0.0605     6.8464 C.ar    
  16 N16            1.4318    -2.7849     9.2915 N.am    
  17 C17            1.6995    -2.1089    10.4229 C.2     
  18 C18            1.8030    -0.7033    10.4419 C.2     
  19 C19            1.6320     0.0099     9.2981 C.2     
  20 C20            1.3353    -4.2462     9.3292 C.3     
  21 O21            1.8566    -2.7287    11.4605 O.2     
  22 C22            2.3858     0.6404    -0.7337 C.3     
  23 C23            2.8848    -6.2113     9.2885 C.ar    
  24 C24            2.7106    -4.8444     9.1815 C.ar    
  25 C25            4.1465    -6.7602     9.1530 C.ar    
  26 C26            5.2337    -5.9419     8.9106 C.ar    
  27 C27            5.0594    -4.5745     8.8032 C.ar    
  28 C28            3.7981    -4.0259     8.9386 C.ar    
  29 C29            1.7004    -7.1030     9.5590 C.3     
  30 F30            2.1357    -8.4241     9.7086 F       
  31 F31            1.0616    -6.6868    10.7320 F       
  32 F32            0.8042    -7.0258     8.4874 F       
  33 N33            3.1672     1.8720    -0.9038 N.3     
  34 C34            2.5981     2.7204    -1.9587 C.3     
  35 C35            1.1777     3.1366    -1.5698 C.3     
  36 C36            0.3186     1.8838    -1.3775 C.3     
  37 H37            0.9845     1.5278     0.6421 H       
  38 H38            1.7850     0.4609     1.8069 H       
  39 H39            1.9372    -0.7053     3.9687 H       
  40 H40           -1.0633    -3.4687     2.6865 H       
  41 H41           -1.2174    -2.2976     0.5275 H       
  42 H42            0.3986    -3.7843     4.7369 H       
  43 H43            1.2075     1.0157     6.7812 H       
  44 H44            2.0193    -0.1918    11.3682 H       
  45 H45            1.7090     1.0872     9.3003 H       
  46 H46            0.9040    -4.5575    10.2806 H       
  47 H47            0.7002    -4.5896     8.5127 H       
  48 H48            2.8497     0.0190     0.0323 H       
  49 H49            2.3586     0.0944    -1.6767 H       
  50 H50            4.2827    -7.8282     9.2369 H       
  51 H51            6.2194    -6.3705     8.8054 H       
  52 H52            5.9089    -3.9351     8.6138 H       
  53 H53            3.6619    -2.9578     8.8551 H       
  54 H54            3.2399     2.3772    -0.0334 H       
  55 H55            3.2161     3.6097    -2.0825 H       
  56 H56            2.5699     2.1647    -2.8960 H       
  57 H57            1.2066     3.7043    -0.6397 H       
  58 H58            0.7499     3.7534    -2.3601 H       
  59 H59            0.2575     1.3361    -2.3179 H       
  60 H60           -0.6824     2.1740    -1.0582 H       
@<TRIPOS>BOND
   1    1    2 1
   2    1   22 1
   3    1   36 1
   4    1   37 1
   5    2    3 1
   6    3    4 ar
   7    3    8 ar
   8    4    5 ar
   9    4   38 1
  10    5    6 ar
  11    5   39 1
  12    6    7 ar
  13    6    9 1
  14    7    8 ar
  15    7   40 1
  16    8   41 1
  17    9   10 1
  18    9   42 1
  19   10   11 ar
  20   10   12 ar
  21   11   15 ar
  22   12   13 ar
  23   13   14 ar
  24   13   16 1
  25   14   15 ar
  26   14   19 1
  27   15   43 1
  28   16   17 am
  29   16   20 1
  30   17   18 1
  31   17   21 2
  32   18   19 2
  33   18   44 1
  34   19   45 1
  35   20   24 1
  36   20   46 1
  37   20   47 1
  38   22   33 1
  39   22   48 1
  40   22   49 1
  41   23   24 ar
  42   23   25 ar
  43   23   29 1
  44   24   28 ar
  45   25   26 ar
  46   25   50 1
  47   26   27 ar
  48   26   51 1
  49   27   28 ar
  50   27   52 1
  51   28   53 1
  52   29   30 1
  53   29   31 1
  54   29   32 1
  55   33   34 1
  56   33   54 1
  57   34   35 1
  58   34   55 1
  59   34   56 1
  60   35   36 1
  61   35   57 1
  62   35   58 1
  63   36   59 1
  64   36   60 1

#	End of record

