#	Name: ASD01190020
#	Creating user name:	WinNT
#	Creation time:	15. 06. 2019 19:07

#	Modifying user name:	WinNT
#	Modification time:	15. 06. 2019 19:07

#	Program:	/corina/corina34_cracker 3.40 0067  02.08.2006

@<TRIPOS>MOLECULE
ASD01190020
  71   76    0    0    0
SMALL
NO_CHARGES


@<TRIPOS>ATOM
   1 C1             0.2426     1.4669     0.1865 C.3     
   2 C2            -3.6472    -0.0888     5.2819 C.ar    
   3 C3            -2.8181    -0.0357     6.3925 C.ar    
   4 C4            -1.4449     0.0145     6.2248 C.ar    
   5 C5            -0.8853     0.0162     4.9534 C.ar    
   6 C6            -1.7209    -0.0263     3.8516 C.ar    
   7 C7            -3.0934    -0.0845     4.0172 C.ar    
   8 C8             0.6186     0.0609     4.8620 C.3     
   9 C9             1.0943     0.3451     3.4307 C.3     
  10 C10            0.2717    -0.5609     2.5207 C.3     
  11 C11           -1.1440     0.0223     2.4643 C.3     
  12 C12            0.8054    -0.8243     1.1565 C.3     
  13 C13            0.0564    -0.0474     0.0537 C.3     
  14 C14           -1.4060    -0.4036     0.0047 C.3     
  15 C15           -1.9594    -0.6997     1.4103 C.3     
  16 C16            2.2668    -0.4508     0.8710 C.3     
  17 C17            2.3368    -0.4550    -0.6806 C.3     
  18 C18            0.8721    -0.4753    -1.1863 C.3     
  19 O19           -3.3527    -0.0321     7.6424 O.3     
  20 O20            0.4937    -1.8123    -1.5926 O.3     
  21 C21           -3.3660     1.1445     8.2985 C.2     
  22 C22           -4.0123     1.2443     9.6230 C.ar    
  23 O23           -2.8465     2.1234     7.8009 O.2     
  24 C24           -4.0279     2.4622    10.3058 C.ar    
  25 C25           -4.6337     2.5484    11.5421 C.ar    
  26 C26           -5.2248     1.4315    12.1058 C.ar    
  27 C27           -5.2126     0.2214    11.4349 C.ar    
  28 C28           -4.6154     0.1225    10.1954 C.ar    
  29 C29            0.6873    -2.1359    -2.8842 C.2     
  30 O30            1.1602    -1.3208    -3.6501 O.2     
  31 O31            0.3568    -3.3629    -3.3272 O.3     
  32 C32            0.6945    -3.6683    -4.6081 C.ar    
  33 C33            2.0066    -3.9901    -4.9228 C.ar    
  34 C34           -0.2737    -3.6641    -5.6016 C.ar    
  35 C35            0.0719    -3.9752    -6.9025 C.ar    
  36 C36            1.3813    -4.2910    -7.2145 C.ar    
  37 C37            2.3471    -4.3005    -6.2251 C.ar    
  38 N38            1.7487    -4.6249    -8.6090 N.pl3   
  39 O39            0.8978    -4.6213    -9.4804 O.2     
  40 O40            2.9019    -4.9033    -8.8850 O.2     
  41 H41            1.3061     1.7050     0.1705 H       
  42 H42           -0.2545     1.9683    -0.6440 H       
  43 H43           -0.1914     1.8052     1.1274 H       
  44 H44           -4.7192    -0.1310     5.4040 H       
  45 H45           -0.8016     0.0515     7.0910 H       
  46 H46           -3.7442    -0.1234     3.1565 H       
  47 H47            0.9931     0.8439     5.5188 H       
  48 H48            1.0221    -0.8996     5.1802 H       
  49 H49            0.9182     1.3889     3.1874 H       
  50 H50            2.1515     0.1044     3.3451 H       
  51 H51            0.1889    -1.5393     3.0414 H       
  52 H52           -1.0870     1.0791     2.2120 H       
  53 H53            0.7000    -1.9111     0.9472 H       
  54 H54           -1.9720     0.4251    -0.4421 H       
  55 H55           -1.5546    -1.2851    -0.6323 H       
  56 H56           -1.9289    -1.7778     1.5951 H       
  57 H57           -3.0031    -0.3722     1.4605 H       
  58 H58            2.5166     0.5265     1.2745 H       
  59 H59            2.9371    -1.2100     1.2823 H       
  60 H60            2.8440     0.4411    -1.0358 H       
  61 H61            2.8631    -1.3445    -1.0280 H       
  62 H62            0.7261     0.2403    -1.9867 H       
  63 H63           -3.5666     3.3346     9.8671 H       
  64 H64           -4.6462     3.4896    12.0715 H       
  65 H65           -5.6977     1.5045    13.0740 H       
  66 H66           -5.6752    -0.6466    11.8809 H       
  67 H67           -4.6065    -0.8226     9.6728 H       
  68 H68            2.7614    -3.9977    -4.1504 H       
  69 H69           -1.2968    -3.4181    -5.3583 H       
  70 H70           -0.6815    -3.9720    -7.6763 H       
  71 H71            3.3694    -4.5472    -6.4714 H       
@<TRIPOS>BOND
   1    1   13 1
   2    1   41 1
   3    1   42 1
   4    1   43 1
   5    2    3 ar
   6    2    7 ar
   7    2   44 1
   8    3    4 ar
   9    3   19 1
  10    4    5 ar
  11    4   45 1
  12    5    6 ar
  13    5    8 1
  14    6    7 ar
  15    6   11 1
  16    7   46 1
  17    8    9 1
  18    8   47 1
  19    8   48 1
  20    9   10 1
  21    9   49 1
  22    9   50 1
  23   10   11 1
  24   10   12 1
  25   10   51 1
  26   11   15 1
  27   11   52 1
  28   12   13 1
  29   12   16 1
  30   12   53 1
  31   13   14 1
  32   13   18 1
  33   14   15 1
  34   14   54 1
  35   14   55 1
  36   15   56 1
  37   15   57 1
  38   16   17 1
  39   16   58 1
  40   16   59 1
  41   17   18 1
  42   17   60 1
  43   17   61 1
  44   18   20 1
  45   18   62 1
  46   19   21 1
  47   20   29 1
  48   21   22 1
  49   21   23 2
  50   22   24 ar
  51   22   28 ar
  52   24   25 ar
  53   24   63 1
  54   25   26 ar
  55   25   64 1
  56   26   27 ar
  57   26   65 1
  58   27   28 ar
  59   27   66 1
  60   28   67 1
  61   29   30 2
  62   29   31 1
  63   31   32 1
  64   32   33 ar
  65   32   34 ar
  66   33   37 ar
  67   33   68 1
  68   34   35 ar
  69   34   69 1
  70   35   36 ar
  71   35   70 1
  72   36   37 ar
  73   36   38 1
  74   37   71 1
  75   38   39 2
  76   38   40 2

#	End of record

