#	Name: ASD01918161
#	Creating user name:	WinNT
#	Creation time:	15. 06. 2019 20:10

#	Modifying user name:	WinNT
#	Modification time:	15. 06. 2019 20:10

#	Program:	/corina/corina34_cracker 3.40 0067  02.08.2006

@<TRIPOS>MOLECULE
ASD01918161
  58   61    0    0    0
SMALL
NO_CHARGES


@<TRIPOS>ATOM
   1 C1             2.0545     1.3406    -0.6456 C.ar    
   2 C2             2.0373    -0.0400    -0.5663 C.ar    
   3 C3             1.1451    -0.6431     0.3102 C.ar    
   4 C4             0.3055     0.1458     1.0733 C.ar    
   5 N5             0.3409     1.4601     0.9796 N.ar    
   6 C6             1.1791     2.0763     0.1539 C.ar    
   7 C7             1.1845     3.5540     0.0813 C.2     
   8 C8             2.3374     4.3084     0.1632 C.2     
   9 C9             0.0230     4.3147    -0.0825 C.2     
  10 N10            0.1752     5.6102    -0.1306 N.2     
  11 S11            1.8285     5.9455     0.0289 S.3     
  12 N12            3.6374     3.8425     0.3219 N.am    
  13 C13            4.6629     4.7148     0.3847 C.2     
  14 C14            6.0723     4.2097     0.5567 C.3     
  15 O15            4.4515     5.9062     0.3027 O.2     
  16 C16            7.1926     5.2498     0.6209 C.3     
  17 C17            6.7700     4.5016     1.8868 C.3     
  18 C18            8.5388     4.8774    -0.0036 C.3     
  19 C19           -0.6644    -0.5055     2.0252 C.3     
  20 C20           -1.9405    -0.8862     1.2720 C.3     
  21 C21           -0.0284    -1.7637     2.6196 C.3     
  22 C22           -1.3126     3.6824    -0.1963 C.ar    
  23 C23           -2.3766     4.2222     0.4934 C.ar    
  24 C24           -1.4710     2.5457    -1.0115 C.ar    
  25 C25           -2.6688     1.9315    -1.1503 C.ar    
  26 C26           -3.7997     2.4305    -0.4664 C.ar    
  27 C27           -3.6466     3.6211     0.3847 C.ar    
  28 N28           -5.0684     2.0712    -0.3929 N.2     
  29 N29           -5.7435     2.9538     0.4575 N.pl3   
  30 C30           -4.8949     3.8810     0.9220 C.2     
  31 C31           -7.1688     2.8780     0.7878 C.3     
  32 H32            2.7389     1.8423    -1.3137 H       
  33 H33            2.7030    -0.6359    -1.1731 H       
  34 H34            1.1075    -1.7191     0.3946 H       
  35 H35            3.8065     2.8896     0.3875 H       
  36 H36            6.2943     3.2603     0.0693 H       
  37 H37            6.9102     6.2993     0.5387 H       
  38 H38            6.2095     5.0589     2.6374 H       
  39 H39            7.4510     3.7441     2.2747 H       
  40 H40            8.4016     4.6670    -1.0642 H       
  41 H41            9.2362     5.7068     0.1151 H       
  42 H42            8.9379     3.9933     0.4936 H       
  43 H43           -0.9098     0.1910     2.8269 H       
  44 H44           -1.6951    -1.5827     0.4702 H       
  45 H45           -2.6420    -1.3573     1.9605 H       
  46 H46           -2.3936     0.0102     0.8485 H       
  47 H47            0.8807    -1.4925     3.1563 H       
  48 H48           -0.7299    -2.2348     3.3082 H       
  49 H49            0.2170    -2.4602     1.8179 H       
  50 H50           -2.2385     5.0969     1.1115 H       
  51 H51           -0.6145     2.1539    -1.5400 H       
  52 H52           -2.7601     1.0613    -1.7834 H       
  53 H53           -5.1413     4.6873     1.5969 H       
  54 H54           -7.3044     2.2541     1.6713 H       
  55 H55           -7.5491     3.8796     0.9885 H       
  56 H56           -7.7135     2.4438    -0.0506 H       
  57 Cl57          14.2362    11.2993     8.3082 Cl      
  58 H58           14.2362    12.6693     8.3082 H       
@<TRIPOS>BOND
   1    1    2 ar
   2    1    6 ar
   3    1   32 1
   4    2    3 ar
   5    2   33 1
   6    3    4 ar
   7    3   34 1
   8    4    5 ar
   9    4   19 1
  10    5    6 ar
  11    6    7 1
  12    7    8 2
  13    7    9 1
  14    8   12 1
  15    8   11 1
  16    9   10 2
  17    9   22 1
  18   10   11 1
  19   12   13 am
  20   12   35 1
  21   13   15 2
  22   13   14 1
  23   14   16 1
  24   14   17 1
  25   14   36 1
  26   16   17 1
  27   16   18 1
  28   16   37 1
  29   17   38 1
  30   17   39 1
  31   18   40 1
  32   18   41 1
  33   18   42 1
  34   19   20 1
  35   19   21 1
  36   19   43 1
  37   20   44 1
  38   20   45 1
  39   20   46 1
  40   21   47 1
  41   21   48 1
  42   21   49 1
  43   22   23 ar
  44   22   24 ar
  45   23   27 ar
  46   23   50 1
  47   24   25 ar
  48   24   51 1
  49   25   26 ar
  50   25   52 1
  51   26   27 ar
  52   26   28 2
  53   27   30 2
  54   28   29 1
  55   29   30 1
  56   29   31 1
  57   30   53 1
  58   31   54 1
  59   31   55 1
  60   31   56 1
  61   57   58 1

#	End of record

