#	Name: ASD01208673
#	Creating user name:	WinNT
#	Creation time:	15. 06. 2019 19:10

#	Modifying user name:	WinNT
#	Modification time:	15. 06. 2019 19:10

#	Program:	/corina/corina34_cracker 3.40 0067  02.08.2006

@<TRIPOS>MOLECULE
ASD01208673
  61   65    0    0    0
SMALL
NO_CHARGES


@<TRIPOS>ATOM
   1 C1            -0.5156     1.4625     1.4803 C.2     
   2 C2            -0.3547     0.1506     0.8182 C.ar    
   3 C3             0.8818    -0.2176     0.2859 C.ar    
   4 C4             1.0284    -1.4477    -0.3331 C.ar    
   5 C5            -0.0517    -2.3137    -0.4246 C.ar    
   6 C6            -1.2828    -1.9518     0.1031 C.ar    
   7 C7            -1.4369    -0.7252     0.7287 C.ar    
   8 O8             0.4298     2.2222     1.5617 O.2     
   9 N9            -1.7120     1.8185     1.9887 N.am    
  10 S10           -3.3181     3.6295     3.2974 S.3     
  11 C11           -1.8632     3.0511     2.6108 C.2     
  12 N12           -0.9214     3.9301     2.7559 N.2     
  13 C13           -1.2410     5.0515     3.3745 C.2     
  14 C14           -2.5132     5.1234     3.7708 C.2     
  15 O15           -2.3375    -2.8036     0.0108 O.3     
  16 C16           -3.1553    -2.6912    -1.0673 C.ar    
  17 C17           -4.3193    -3.4663    -1.1511 C.ar    
  18 C18           -5.1524    -3.3422    -2.2633 C.ar    
  19 C19           -4.8265    -2.4591    -3.2719 C.ar    
  20 C20           -3.6754    -1.6954    -3.1857 C.ar    
  21 C21           -2.8450    -1.8052    -2.0864 C.ar    
  22 O22           -5.7446    -5.2127    -0.0193 O.3     
  23 C23           -4.6623    -4.4103    -0.0679 C.2     
  24 N24           -3.9697    -4.6249     1.0266 N.2     
  25 N25           -4.5682    -5.5128     1.7400 N.2     
  26 C26           -5.6570    -5.8969     1.1349 C.2     
  27 C27           -6.6396    -6.9228     1.6378 C.3     
  28 C28           -5.9283    -8.2656     1.8168 C.3     
  29 C29           -7.2116    -6.4656     2.9812 C.3     
  30 O30            2.2320    -1.8070    -0.8521 O.3     
  31 C31            2.3124    -3.0898    -1.4765 C.3     
  32 C32            3.7335    -3.3158    -1.9965 C.3     
  33 C33            3.8196    -4.6893    -2.6650 C.3     
  34 C34            5.1342    -5.0577    -3.3557 C.3     
  35 C35            4.7515    -5.7253    -2.0333 C.3     
  36 H36            1.7231     0.4560     0.3564 H       
  37 H37            0.0660    -3.2721    -0.9084 H       
  38 H38           -2.3944    -0.4459     1.1429 H       
  39 H39           -2.4674     1.2138     1.9202 H       
  40 H40           -0.5304     5.8465     3.5459 H       
  41 H41           -2.9696     5.9524     4.2912 H       
  42 H42           -6.0512    -3.9368    -2.3347 H       
  43 H43           -5.4720    -2.3637    -4.1325 H       
  44 H44           -3.4270    -1.0069    -3.9799 H       
  45 H45           -1.9507    -1.2028    -2.0237 H       
  46 H46           -7.4496    -7.0340     0.9169 H       
  47 H47           -5.1183    -8.1543     2.5376 H       
  48 H48           -6.6390    -9.0076     2.1805 H       
  49 H49           -5.5208    -8.5913     0.8597 H       
  50 H50           -6.4016    -6.3544     3.7020 H       
  51 H51           -7.7184    -5.5090     2.8536 H       
  52 H52           -7.9224    -7.2077     3.3449 H       
  53 H53            2.0639    -3.8636    -0.7502 H       
  54 H54            1.6098    -3.1335    -2.3087 H       
  55 H55            3.9820    -2.5419    -2.7228 H       
  56 H56            4.4361    -3.2721    -1.1643 H       
  57 H57            2.8956    -5.0515    -3.1157 H       
  58 H58            5.0750    -5.6625    -4.2605 H       
  59 H59            5.9377    -4.3215    -3.3338 H       
  60 H60            5.3033    -5.4284    -1.1414 H       
  61 H61            4.4406    -6.7695    -2.0682 H       
@<TRIPOS>BOND
   1    1    2 1
   2    1    8 2
   3    1    9 am
   4    2    3 ar
   5    2    7 ar
   6    3    4 ar
   7    3   36 1
   8    4    5 ar
   9    4   30 1
  10    5    6 ar
  11    5   37 1
  12    6    7 ar
  13    6   15 1
  14    7   38 1
  15    9   11 1
  16    9   39 1
  17   10   11 1
  18   10   14 1
  19   11   12 2
  20   12   13 1
  21   13   14 2
  22   13   40 1
  23   14   41 1
  24   15   16 1
  25   16   17 ar
  26   16   21 ar
  27   17   18 ar
  28   17   23 1
  29   18   19 ar
  30   18   42 1
  31   19   20 ar
  32   19   43 1
  33   20   21 ar
  34   20   44 1
  35   21   45 1
  36   22   23 1
  37   22   26 1
  38   23   24 2
  39   24   25 1
  40   25   26 2
  41   26   27 1
  42   27   28 1
  43   27   29 1
  44   27   46 1
  45   28   47 1
  46   28   48 1
  47   28   49 1
  48   29   50 1
  49   29   51 1
  50   29   52 1
  51   30   31 1
  52   31   32 1
  53   31   53 1
  54   31   54 1
  55   32   33 1
  56   32   55 1
  57   32   56 1
  58   33   34 1
  59   33   35 1
  60   33   57 1
  61   34   35 1
  62   34   58 1
  63   34   59 1
  64   35   60 1
  65   35   61 1

#	End of record

