#	Name: ASD03331209
#	Creating user name:	WinNT
#	Creation time:	15. 06. 2019 20:38

#	Modifying user name:	WinNT
#	Modification time:	15. 06. 2019 20:38

#	Program:	/corina/corina34_cracker 3.40 0067  02.08.2006

@<TRIPOS>MOLECULE
ASD03331209
  43   45    0    0    0
SMALL
NO_CHARGES


@<TRIPOS>ATOM
   1 N1            -0.0459     1.4956     0.5700 N.am    
   2 C2             0.0020     0.1508     1.1636 C.3     
   3 C3             0.5966    -0.8152     0.1332 C.3     
   4 N4             1.8893    -0.2951    -0.3319 N.3     
   5 C5             1.7286     0.9909    -1.0236 C.3     
   6 C6             1.1804     2.0308    -0.0406 C.3     
   7 C7            -1.1848     2.2162     0.5805 C.2     
   8 O8            -2.2138     1.7208     0.9977 O.2     
   9 N9            -1.1831     3.4859     0.1284 N.am    
  10 C10           -2.3851     4.1963     0.0330 C.ar    
  11 C11           -2.4011     5.5680     0.2481 C.ar    
  12 C12           -3.5885     6.2678     0.1530 C.ar    
  13 C13           -4.7611     5.6045    -0.1560 C.ar    
  14 C14           -4.7496     4.2360    -0.3710 C.ar    
  15 C15           -3.5625     3.5316    -0.2826 C.ar    
  16 C16            2.5721    -1.2726    -1.1898 C.3     
  17 C17            3.7646    -0.6219    -1.8423 C.ar    
  18 C18            4.9973    -0.6549    -1.2179 C.ar    
  19 C19            6.0917    -0.0579    -1.8154 C.ar    
  20 C20            5.9536     0.5723    -3.0385 C.ar    
  21 C21            4.7191     0.6050    -3.6641 C.ar    
  22 C22            3.6263     0.0029    -3.0678 C.ar    
  23 F23           -5.8973     3.5900    -0.6720 F       
  24 Br24           4.5286     1.4670    -5.3364 Br      
  25 Br25           7.4502     1.3896    -3.8558 Br      
  26 H26            0.6286     0.1662     2.0553 H       
  27 H27           -1.0062    -0.1695     1.4266 H       
  28 H28            0.7419    -1.7929     0.5927 H       
  29 H29           -0.0839    -0.9081    -0.7132 H       
  30 H30            2.6949     1.3230    -1.4031 H       
  31 H31            1.0324     0.8728    -1.8539 H       
  32 H32            0.9514     2.9535    -0.5737 H       
  33 H33            1.9204     2.2270     0.7354 H       
  34 H34           -0.3488     3.9073    -0.1309 H       
  35 H35           -1.4858     6.0876     0.4900 H       
  36 H36           -3.6005     7.3346     0.3208 H       
  37 H37           -5.6879     6.1540    -0.2297 H       
  38 H38           -3.5522     2.4655    -0.4549 H       
  39 H39            2.9042    -2.1169    -0.5857 H       
  40 H40            1.8842    -1.6243    -1.9587 H       
  41 H41            5.1054    -1.1470    -0.2626 H       
  42 H42            7.0545    -0.0833    -1.3267 H       
  43 H43            2.6630     0.0281    -3.5554 H       
@<TRIPOS>BOND
   1    1    2 1
   2    1    6 1
   3    1    7 am
   4    2    3 1
   5    2   26 1
   6    2   27 1
   7    3    4 1
   8    3   28 1
   9    3   29 1
  10    4    5 1
  11    4   16 1
  12    5    6 1
  13    5   30 1
  14    5   31 1
  15    6   32 1
  16    6   33 1
  17    7    8 2
  18    7    9 am
  19    9   10 1
  20    9   34 1
  21   10   11 ar
  22   10   15 ar
  23   11   12 ar
  24   11   35 1
  25   12   13 ar
  26   12   36 1
  27   13   14 ar
  28   13   37 1
  29   14   15 ar
  30   14   23 1
  31   15   38 1
  32   16   17 1
  33   16   39 1
  34   16   40 1
  35   17   18 ar
  36   17   22 ar
  37   18   19 ar
  38   18   41 1
  39   19   20 ar
  40   19   42 1
  41   20   21 ar
  42   20   25 1
  43   21   22 ar
  44   21   24 1
  45   22   43 1

#	End of record

