#	Name: ASD01883983
#	Creating user name:	WinNT
#	Creation time:	15. 06. 2019 19:47

#	Modifying user name:	WinNT
#	Modification time:	15. 06. 2019 19:47

#	Program:	/corina/corina34_cracker 3.40 0067  02.08.2006

@<TRIPOS>MOLECULE
ASD01883983
  68   70    0    0    0
SMALL
NO_CHARGES


@<TRIPOS>ATOM
   1 C1             0.0926     1.5256    -0.1215 C.2     
   2 C2             0.0762     0.1206    -0.1159 C.2     
   3 C3            -1.1665    -0.5413    -0.1235 C.2     
   4 C4            -2.3140     0.1751    -0.1360 C.2     
   5 N5            -2.2996     1.5324    -0.1414 N.am    
   6 C6            -1.1427     2.2203    -0.1292 C.2     
   7 C7            -3.5690     2.2635    -0.1550 C.3     
   8 C8            -4.0230     2.5239     1.2827 C.3     
   9 C9            -5.3488     3.2874     1.2686 C.3     
  10 C10           -5.8654     3.4388     2.7007 C.3     
  11 C11           -5.1333     4.6723     0.6551 C.3     
  12 O12           -1.1574     3.4394    -0.1342 O.2     
  13 C13            1.3328     2.2414    -0.1136 C.1     
  14 N14            2.3167     2.8093    -0.1074 N.1     
  15 C15            1.3400    -0.6482    -0.1027 C.ar    
  16 C16            1.6651    -1.4438     0.9971 C.ar    
  17 C17            2.8452    -2.1581     1.0031 C.ar    
  18 C18            3.7059    -2.0872    -0.0780 C.ar    
  19 C19            3.3896    -1.3004    -1.1714 C.ar    
  20 C20            2.2099    -0.5855    -1.1925 C.ar    
  21 C21            4.9936    -2.8699    -0.0644 C.3     
  22 C22            4.9631    -3.9063    -1.1581 C.2     
  23 C23            4.2101    -5.0943    -1.0239 C.2     
  24 C24            4.2388    -6.0577    -2.1521 C.2     
  25 O25            4.9701    -5.7781    -3.2557 O.3     
  26 C26            5.6137    -4.7688    -3.3772 C.2     
  27 C27            5.6661    -3.7301    -2.3351 C.2     
  28 O28            3.6083    -7.0939    -2.0850 O.2     
  29 C29            4.9789    -6.7404    -4.3430 C.3     
  30 C30            5.7525    -6.1621    -5.5297 C.3     
  31 C31            5.7618    -7.1761    -6.6754 C.3     
  32 C32            6.4261    -6.5514    -7.9039 C.3     
  33 C33            6.5445    -8.4198    -6.2494 C.3     
  34 C34            6.1258    -1.9558    -0.2860 C.1     
  35 N35            6.9996    -1.2503    -0.4571 N.1     
  36 C36            3.4470    -5.3592     0.1585 C.1     
  37 N37            2.8416    -5.5694     1.0966 N.1     
  38 H38           -1.2036    -1.6207    -0.1198 H       
  39 H39           -3.2612    -0.3436    -0.1421 H       
  40 H40           -3.4355     3.2139    -0.6716 H       
  41 H41           -4.3237     1.6714    -0.6727 H       
  42 H42           -4.1565     1.5734     1.7994 H       
  43 H43           -3.2683     3.1159     1.8005 H       
  44 H44           -6.0788     2.7368     0.6753 H       
  45 H45           -5.1354     3.9894     3.2940 H       
  46 H46           -6.8100     3.9827     2.6907 H       
  47 H47           -6.0190     2.4521     3.1378 H       
  48 H48           -4.4032     5.2229     1.2484 H       
  49 H49           -4.7652     4.5644    -0.3652 H       
  50 H50           -6.0778     5.2162     0.6450 H       
  51 H51            0.9943    -1.4997     1.8417 H       
  52 H52            3.0980    -2.7738     1.8536 H       
  53 H53            4.0659    -1.2491    -2.0119 H       
  54 H54            1.9642     0.0282    -2.0465 H       
  55 H55            5.1086    -3.3634     0.9007 H       
  56 H56            6.1727    -4.6171    -4.2888 H       
  57 H57            6.2534    -2.8367    -2.4881 H       
  58 H58            5.4591    -7.6605    -4.0100 H       
  59 H59            3.9543    -6.9547    -4.6469 H       
  60 H60            5.2723    -5.2419    -5.8627 H       
  61 H61            6.7771    -5.9478    -5.2258 H       
  62 H62            4.7375    -7.4575    -6.9198 H       
  63 H63            7.4504    -6.2700    -7.6594 H       
  64 H64            6.4328    -7.2737    -8.7201 H       
  65 H65            5.8685    -5.6653    -8.2074 H       
  66 H66            6.5512    -9.1421    -7.0656 H       
  67 H67            7.5688    -8.1383    -6.0049 H       
  68 H68            6.0712    -8.8648    -5.3741 H       
@<TRIPOS>BOND
   1    1    2 2
   2    1   13 1
   3    1    6 1
   4    2    3 1
   5    2   15 1
   6    3    4 2
   7    3   38 1
   8    4    5 1
   9    4   39 1
  10    5    7 1
  11    5    6 am
  12    6   12 2
  13    7    8 1
  14    7   40 1
  15    7   41 1
  16    8    9 1
  17    8   42 1
  18    8   43 1
  19    9   10 1
  20    9   11 1
  21    9   44 1
  22   10   45 1
  23   10   46 1
  24   10   47 1
  25   11   48 1
  26   11   49 1
  27   11   50 1
  28   13   14 3
  29   15   16 ar
  30   15   20 ar
  31   16   17 ar
  32   16   51 1
  33   17   18 ar
  34   17   52 1
  35   18   19 ar
  36   18   21 1
  37   19   20 ar
  38   19   53 1
  39   20   54 1
  40   21   34 1
  41   21   22 1
  42   21   55 1
  43   22   23 1
  44   22   27 2
  45   23   36 1
  46   23   24 2
  47   24   28 2
  48   24   25 1
  49   25   26 2
  50   25   29 1
  51   26   27 1
  52   26   56 1
  53   27   57 1
  54   29   30 1
  55   29   58 1
  56   29   59 1
  57   30   31 1
  58   30   60 1
  59   30   61 1
  60   31   32 1
  61   31   33 1
  62   31   62 1
  63   32   63 1
  64   32   64 1
  65   32   65 1
  66   33   66 1
  67   33   67 1
  68   33   68 1
  69   34   35 3
  70   36   37 3

#	End of record

