#	Name: ASD01140304
#	Creating user name:	WinNT
#	Creation time:	15. 06. 2019 19:00

#	Modifying user name:	WinNT
#	Modification time:	15. 06. 2019 19:00

#	Program:	/corina/corina34_cracker 3.40 0067  02.08.2006

@<TRIPOS>MOLECULE
ASD01140304
  38   41    0    0    0
SMALL
NO_CHARGES


@<TRIPOS>ATOM
   1 C1             0.1093     2.0020     0.2183 C.ar    
   2 C2            -0.0530     0.6183     0.3256 C.ar    
   3 C3             1.0595    -0.2135     0.3150 C.ar    
   4 C4             2.3477     0.3247     0.1977 C.ar    
   5 C5             2.4922     1.7088     0.0676 C.ar    
   6 C6             1.3721     2.5350     0.0905 C.ar    
   7 C7             3.4842    -0.6014     0.2500 C.2     
   8 N8             4.5533    -0.5845    -0.4655 N.2     
   9 C9             4.7686     0.4222    -1.5113 C.3     
  10 C10            4.7714     1.7756    -0.8487 C.2     
  11 N11            3.7428     2.3024    -0.1211 N.pl3   
  12 C12            4.1561     3.5096     0.3401 C.2     
  13 C13            5.7612     2.6826    -0.8494 C.2     
  14 N14            5.3607     3.7332    -0.1151 N.2     
  15 C15            3.3893    -1.6900     1.2503 C.ar    
  16 C16            4.0519    -2.8982     1.0352 C.ar    
  17 C17            2.6416    -1.5086     2.4136 C.ar    
  18 C18            2.5570    -2.5263     3.3415 C.ar    
  19 C19            3.2122    -3.7245     3.1200 C.ar    
  20 C20            3.9597    -3.9084     1.9705 C.ar    
  21 C21           -1.3653     0.0582     0.4467 C.1     
  22 C22           -2.4412    -0.4011     0.5461 C.1     
  23 C23            3.3616     4.4350     1.2252 C.3     
  24 H24           -0.7537     2.6511     0.2312 H       
  25 H25            0.9306    -1.2826     0.3982 H       
  26 H26            1.4949     3.6047     0.0072 H       
  27 H27            5.7271     0.2481    -2.0003 H       
  28 H28            3.9639     0.3714    -2.2447 H       
  29 H29            6.7120     2.5843    -1.3521 H       
  30 H30            4.6357    -3.0430     0.1381 H       
  31 H31            2.1302    -0.5735     2.5880 H       
  32 H32            1.9783    -2.3871     4.2428 H       
  33 H33            3.1436    -4.5178     3.8496 H       
  34 H34            4.4690    -4.8460     1.8031 H       
  35 H35           -3.4034    -0.8118     0.6349 H       
  36 H36            3.4907     4.1411     2.2669 H       
  37 H37            3.7132     5.4578     1.0900 H       
  38 H38            2.3063     4.3753     0.9590 H       
@<TRIPOS>BOND
   1    1    2 ar
   2    1    6 ar
   3    1   24 1
   4    2    3 ar
   5    2   21 1
   6    3    4 ar
   7    3   25 1
   8    4    5 ar
   9    4    7 1
  10    5    6 ar
  11    5   11 1
  12    6   26 1
  13    7    8 2
  14    7   15 1
  15    8    9 1
  16    9   10 1
  17    9   27 1
  18    9   28 1
  19   10   11 1
  20   10   13 2
  21   11   12 1
  22   12   23 1
  23   12   14 2
  24   13   14 1
  25   13   29 1
  26   15   16 ar
  27   15   17 ar
  28   16   20 ar
  29   16   30 1
  30   17   18 ar
  31   17   31 1
  32   18   19 ar
  33   18   32 1
  34   19   20 ar
  35   19   33 1
  36   20   34 1
  37   21   22 3
  38   22   35 1
  39   23   36 1
  40   23   37 1
  41   23   38 1

#	End of record

