#	Name: ASD07930243
#	Creating user name:	WinNT
#	Creation time:	15. 06. 2019 21:12

#	Modifying user name:	WinNT
#	Modification time:	15. 06. 2019 21:12

#	Program:	/corina/corina34_cracker 3.40 0067  02.08.2006

@<TRIPOS>MOLECULE
ASD07930243
  56   60    0    0    0
SMALL
NO_CHARGES


@<TRIPOS>ATOM
   1 C1            -0.0376     0.7921    -0.5290 C.2     
   2 C2             0.0840    -0.5685    -0.6019 C.2     
   3 C3             1.4230    -1.1613    -0.5622 C.2     
   4 N4             2.4955    -0.3580    -0.4537 N.am    
   5 C5             2.3471     1.0088    -0.3839 C.2     
   6 C6             1.1134     1.5822    -0.4191 C.2     
   7 C7             3.8520    -0.9198    -0.4049 C.3     
   8 C8             4.7701    -0.0209    -1.2465 C.3     
   9 N9             4.7454     1.3341    -0.6775 N.am    
  10 C10            3.5602     1.8485    -0.2708 C.2     
  11 C11            5.9794     2.1137    -0.5527 C.3     
  12 O12            3.4945     2.9765     0.1780 O.2     
  13 O13            1.5634    -2.3708    -0.6265 O.2     
  14 N14           -1.0496    -1.3789    -0.7119 N.pl3   
  15 C15           -1.3811    -2.1653    -1.7696 C.2     
  16 N16           -2.5072    -2.7683    -1.5019 N.2     
  17 C17           -2.9317    -2.3977    -0.2845 C.2     
  18 C18           -2.0344    -1.5354     0.2295 C.2     
  19 C19           -4.1923    -2.8697     0.3932 C.3     
  20 C20            6.2726     2.8202    -1.8778 C.3     
  21 O21            5.2568     3.7919    -2.1345 O.3     
  22 C22            5.3814     4.5297    -3.2687 C.ar    
  23 C23            4.4613     5.5441    -3.5504 C.ar    
  24 C24            6.4236     4.2833    -4.1470 C.ar    
  25 C25            6.5500     5.0353    -5.3004 C.ar    
  26 C26            5.6385     6.0363    -5.5841 C.ar    
  27 C27            4.5973     6.2952    -4.7149 C.ar    
  28 C28            3.3446     5.8186    -2.6128 C.2     
  29 C29            2.3291     6.6947    -2.8082 C.2     
  30 O30            1.5410     6.6320    -1.7175 O.3     
  31 C31            2.0702     5.7335    -0.8764 C.2     
  32 N32            3.1489     5.2368    -1.4083 N.2     
  33 C33            1.5036     5.3544     0.4676 C.3     
  34 H34           -1.0135     1.2537    -0.5605 H       
  35 H35            1.0211     2.6567    -0.3619 H       
  36 H36            4.2041    -0.9431     0.6264 H       
  37 H37            3.8476    -1.9293    -0.8160 H       
  38 H38            5.7878    -0.4104    -1.2208 H       
  39 H39            4.4117     0.0075    -2.2755 H       
  40 H40            5.8619     2.8562     0.2366 H       
  41 H41            6.8063     1.4480    -0.3052 H       
  42 H42           -0.8091    -2.2726    -2.6793 H       
  43 H43           -2.0844    -1.0538     1.1949 H       
  44 H44           -3.9779    -3.7656     0.9759 H       
  45 H45           -4.5644    -2.0868     1.0541 H       
  46 H46           -4.9462    -3.0980    -0.3602 H       
  47 H47            7.2421     3.3148    -1.8191 H       
  48 H48            6.2868     2.0875    -2.6848 H       
  49 H49            7.1385     3.5033    -3.9306 H       
  50 H50            7.3642     4.8405    -5.9826 H       
  51 H51            5.7437     6.6199    -6.4867 H       
  52 H52            3.8875     7.0776    -4.9395 H       
  53 H53            2.1801     7.3234    -3.6736 H       
  54 H54            0.6452     5.9875     0.6917 H       
  55 H55            1.1901     4.3106     0.4484 H       
  56 H56            2.2658     5.4908     1.2348 H       
@<TRIPOS>BOND
   1    1    2 2
   2    1    6 1
   3    1   34 1
   4    2    3 1
   5    2   14 1
   6    3    4 am
   7    3   13 2
   8    4    5 1
   9    4    7 1
  10    5    6 2
  11    5   10 1
  12    6   35 1
  13    7    8 1
  14    7   36 1
  15    7   37 1
  16    8    9 1
  17    8   38 1
  18    8   39 1
  19    9   10 am
  20    9   11 1
  21   10   12 2
  22   11   20 1
  23   11   40 1
  24   11   41 1
  25   14   15 1
  26   14   18 1
  27   15   16 2
  28   15   42 1
  29   16   17 1
  30   17   18 2
  31   17   19 1
  32   18   43 1
  33   19   44 1
  34   19   45 1
  35   19   46 1
  36   20   21 1
  37   20   47 1
  38   20   48 1
  39   21   22 1
  40   22   23 ar
  41   22   24 ar
  42   23   28 1
  43   23   27 ar
  44   24   25 ar
  45   24   49 1
  46   25   26 ar
  47   25   50 1
  48   26   27 ar
  49   26   51 1
  50   27   52 1
  51   28   29 2
  52   28   32 1
  53   29   30 1
  54   29   53 1
  55   30   31 1
  56   31   32 2
  57   31   33 1
  58   33   54 1
  59   33   55 1
  60   33   56 1

#	End of record

