#	Name: ASD08150207
#	Creating user name:	WinNT
#	Creation time:	15. 06. 2019 21:15

#	Modifying user name:	WinNT
#	Modification time:	15. 06. 2019 21:15

#	Program:	/corina/corina34_cracker 3.40 0067  02.08.2006

@<TRIPOS>MOLECULE
ASD08150207
  52   56    0    0    0
SMALL
NO_CHARGES


@<TRIPOS>ATOM
   1 N1            -0.0157     1.2953    -0.0516 N.2     
   2 C2             0.0018    -0.0027    -0.0877 C.2     
   3 N3             1.1481    -0.7345    -0.1046 N.am    
   4 C4             2.3556    -0.1235    -0.0845 C.2     
   5 C5             2.3701     1.3459    -0.0440 C.ar    
   6 C6             3.5601     2.0707    -0.0212 C.ar    
   7 C7             3.5159     3.4470     0.0160 C.ar    
   8 C8             2.2980     4.1145     0.0314 C.ar    
   9 C9             1.1112     3.4174     0.0098 C.ar    
  10 C10            1.1295     2.0215    -0.0285 C.ar    
  11 O11            3.3896    -0.7658    -0.0988 O.2     
  12 C12            1.0783    -2.1340    -0.1428 C.ar    
  13 C13            1.0404    -2.8643     1.0433 C.ar    
  14 C14            0.9709    -4.2473     0.9993 C.ar    
  15 C15            0.9394    -4.8997    -0.2193 C.ar    
  16 C16            0.9774    -4.1757    -1.3966 C.ar    
  17 C17            1.0410    -2.7954    -1.3614 C.ar    
  18 O18            1.0720    -2.2214     2.2407 O.3     
  19 C19            1.0299    -3.0346     3.4150 C.3     
  20 C20            1.0724    -2.1748     4.6090 C.1     
  21 C21            1.1063    -1.4890     5.5613 C.1     
  22 C22            4.8857     1.3540    -0.0367 C.3     
  23 C23           -1.3149    -0.7353    -0.1115 C.3     
  24 N24           -3.9986     1.5256     0.6757 N.2     
  25 C25           -3.0841     0.6653     1.0181 C.2     
  26 N26           -2.4134     0.2337    -0.0874 N.pl3   
  27 C27           -2.9555     0.8735    -1.1732 C.ar    
  28 N28           -2.7245     0.8607    -2.4818 N.ar    
  29 C29           -3.4366     1.6107    -3.2963 C.ar    
  30 N30           -4.4019     2.4034    -2.8679 N.ar    
  31 C31           -4.7052     2.4827    -1.5763 C.ar    
  32 C32           -3.9729     1.7004    -0.6674 C.ar    
  33 N33           -5.7183     3.3167    -1.1368 N.pl3   
  34 H34            4.4362     4.0119     0.0337 H       
  35 H35            2.2819     5.1940     0.0610 H       
  36 H36            0.1703     3.9475     0.0228 H       
  37 H37            0.9418    -4.8159     1.9170 H       
  38 H38            0.8852    -5.9778    -0.2517 H       
  39 H39            0.9532    -4.6897    -2.3461 H       
  40 H40            1.0660    -2.2323    -2.2826 H       
  41 H41            0.1092    -3.6181     3.4201 H       
  42 H42            1.8869    -3.7080     3.4215 H       
  43 H43            1.1367    -0.8757     6.4130 H       
  44 H44            5.1532     1.1069    -1.0641 H       
  45 H45            5.6523     1.9987     0.3933 H       
  46 H46            4.8105     0.4382     0.5495 H       
  47 H47           -1.3801    -1.3360    -1.0187 H       
  48 H48           -1.3847    -1.3855     0.7606 H       
  49 H49           -2.8857     0.3413     2.0291 H       
  50 H50           -3.2231     1.5768    -4.3544 H       
  51 H51           -6.2165     3.8521    -1.7740 H       
  52 H52           -5.9303     3.3659    -0.1915 H       
@<TRIPOS>BOND
   1    1    2 2
   2    1   10 1
   3    2    3 1
   4    2   23 1
   5    3    4 am
   6    3   12 1
   7    4    5 1
   8    4   11 2
   9    5    6 ar
  10    5   10 ar
  11    6    7 ar
  12    6   22 1
  13    7    8 ar
  14    7   34 1
  15    8    9 ar
  16    8   35 1
  17    9   10 ar
  18    9   36 1
  19   12   13 ar
  20   12   17 ar
  21   13   14 ar
  22   13   18 1
  23   14   15 ar
  24   14   37 1
  25   15   16 ar
  26   15   38 1
  27   16   17 ar
  28   16   39 1
  29   17   40 1
  30   18   19 1
  31   19   20 1
  32   19   41 1
  33   19   42 1
  34   20   21 3
  35   21   43 1
  36   22   44 1
  37   22   45 1
  38   22   46 1
  39   23   26 1
  40   23   47 1
  41   23   48 1
  42   24   25 2
  43   24   32 1
  44   25   26 1
  45   25   49 1
  46   26   27 1
  47   27   28 ar
  48   27   32 ar
  49   28   29 ar
  50   29   30 ar
  51   29   50 1
  52   30   31 ar
  53   31   32 ar
  54   31   33 1
  55   33   51 1
  56   33   52 1

#	End of record

