#	Name: ASD03331352
#	Creating user name:	WinNT
#	Creation time:	15. 06. 2019 20:39

#	Modifying user name:	WinNT
#	Modification time:	15. 06. 2019 20:39

#	Program:	/corina/corina34_cracker 3.40 0067  02.08.2006

@<TRIPOS>MOLECULE
ASD03331352
  66   68    0    0    0
SMALL
NO_CHARGES


@<TRIPOS>ATOM
   1 C1             0.3892     2.0105     0.9780 C.2     
   2 C2             0.2396     0.5392     0.6884 C.3     
   3 O3             1.4871     2.5148     0.9922 O.2     
   4 O4            -0.6976     2.7619     1.2148 O.3     
   5 C5             1.4853    -1.5219     0.4089 C.3     
   6 C6             2.8518    -2.0578     0.0635 C.2     
   7 C7             3.8423    -1.2966    -0.4609 C.2     
   8 C8             3.6836     0.1734    -0.7616 C.3     
   9 C9             2.1826     0.4953    -0.7558 C.3     
  10 N10            1.5647    -0.0521     0.4594 N.3     
  11 N11            4.5881    -3.3832    -0.2189 N.2     
  12 N12            4.9257    -2.0885    -0.6433 N.am    
  13 C13            3.3408    -3.3660     0.2062 C.2     
  14 C14            2.5861    -4.5255     0.7420 C.ar    
  15 C15            3.1658    -5.3537     1.7042 C.ar    
  16 C16            2.4588    -6.4325     2.2008 C.ar    
  17 C17            1.1772    -6.6919     1.7450 C.ar    
  18 C18            0.5971    -5.8712     0.7885 C.ar    
  19 C19            1.2944    -4.7874     0.2903 C.ar    
  20 F20           -0.6536    -6.1291     0.3474 F       
  21 F21            0.4898    -7.7478     2.2328 F       
  22 F22            4.4162    -5.1017     2.1492 F       
  23 C23            6.1162    -1.7022    -1.1432 C.2     
  24 N24            7.1155    -2.5974    -1.2721 N.am    
  25 O25            6.2886    -0.5470    -1.4778 O.2     
  26 C26            9.1091    -3.3664    -2.4225 C.2     
  27 C27            8.4095    -2.1776    -1.8156 C.3     
  28 C28            9.2708    -1.5979    -0.6917 C.3     
  29 C29            9.5531    -2.6853     0.3470 C.3     
  30 O30            8.8699    -4.4836    -2.0155 O.2     
  31 N31           10.0005    -3.1882    -3.4175 N.am    
  32 C32           10.7603    -4.3295    -3.9334 C.3     
  33 C33           10.5928    -1.0913    -1.2719 C.3     
  34 C34            8.5279    -0.4377    -0.0264 C.3     
  35 C35           -0.4782     4.1712     1.4864 C.3     
  36 C36           -1.8230     4.8591     1.7299 C.3     
  37 H37           -0.2355     0.0482     1.5378 H       
  38 H38           -0.3769     0.4047    -0.2004 H       
  39 H39            0.7681    -1.8252    -0.3538 H       
  40 H40            1.1743    -1.9068     1.3802 H       
  41 H41            4.1904     0.7631     0.0024 H       
  42 H42            4.1052     0.3972    -1.7415 H       
  43 H43            2.0432     1.5761    -0.7787 H       
  44 H44            1.7128     0.0507    -1.6332 H       
  45 H45            2.9066    -7.0742     2.9451 H       
  46 H46            0.8403    -4.1465    -0.4509 H       
  47 H47            6.9778    -3.5197    -1.0051 H       
  48 H48            8.2527    -1.4182    -2.5817 H       
  49 H49           10.0824    -3.5119    -0.1270 H       
  50 H50           10.1667    -2.2724     1.1476 H       
  51 H51            8.6113    -3.0462     0.7603 H       
  52 H52           10.1389    -2.3042    -3.7920 H       
  53 H53           11.4259    -3.9934    -4.7285 H       
  54 H54           11.3492    -4.7680    -3.1278 H       
  55 H55           10.0712    -5.0763    -4.3278 H       
  56 H56           10.3961    -0.2701    -1.9611 H       
  57 H57           11.2341    -0.7411    -0.4630 H       
  58 H58           11.0900    -1.9018    -1.8048 H       
  59 H59            7.5861    -0.7986     0.3869 H       
  60 H60            9.1415    -0.0247     0.7742 H       
  61 H61            8.3268     0.3370    -0.7664 H       
  62 H62            0.1496     4.2773     2.3711 H       
  63 H63            0.0167     4.6332     0.6322 H       
  64 H64           -2.3180     4.3972     2.5842 H       
  65 H65           -1.6583     5.9171     1.9338 H       
  66 H66           -2.4508     4.7530     0.8452 H       
@<TRIPOS>BOND
   1    1    2 1
   2    1    3 2
   3    1    4 1
   4    2   10 1
   5    2   37 1
   6    2   38 1
   7    4   35 1
   8    5    6 1
   9    5   10 1
  10    5   39 1
  11    5   40 1
  12    6    7 2
  13    6   13 1
  14    7    8 1
  15    7   12 1
  16    8    9 1
  17    8   41 1
  18    8   42 1
  19    9   10 1
  20    9   43 1
  21    9   44 1
  22   11   12 1
  23   11   13 2
  24   12   23 am
  25   13   14 1
  26   14   15 ar
  27   14   19 ar
  28   15   16 ar
  29   15   22 1
  30   16   17 ar
  31   16   45 1
  32   17   18 ar
  33   17   21 1
  34   18   19 ar
  35   18   20 1
  36   19   46 1
  37   23   24 am
  38   23   25 2
  39   24   27 1
  40   24   47 1
  41   26   30 2
  42   26   31 am
  43   26   27 1
  44   27   28 1
  45   27   48 1
  46   28   29 1
  47   28   33 1
  48   28   34 1
  49   29   49 1
  50   29   50 1
  51   29   51 1
  52   31   32 1
  53   31   52 1
  54   32   53 1
  55   32   54 1
  56   32   55 1
  57   33   56 1
  58   33   57 1
  59   33   58 1
  60   34   59 1
  61   34   60 1
  62   34   61 1
  63   35   36 1
  64   35   62 1
  65   35   63 1
  66   36   64 1
  67   36   65 1
  68   36   66 1

#	End of record

