#	Name: ASD00740016
#	Creating user name:	WinNT
#	Creation time:	15. 06. 2019 18:37

#	Modifying user name:	WinNT
#	Modification time:	15. 06. 2019 18:37

#	Program:	/corina/corina34_cracker 3.40 0067  02.08.2006

@<TRIPOS>MOLECULE
ASD00740016
  68   72    0    0    0
SMALL
NO_CHARGES


@<TRIPOS>ATOM
   1 C1             0.2843     2.1180    -0.0589 C.ar    
   2 C2             0.9938     2.0262     1.1422 C.ar    
   3 C3             0.4038     2.3362     2.3300 C.ar    
   4 C4            -0.9337     2.7539     2.3559 C.ar    
   5 C5            -1.6585     2.8492     1.1428 C.ar    
   6 C6            -1.0327     2.5318    -0.0667 C.ar    
   7 N7            -1.5549     3.0687     3.5034 N.ar    
   8 C8            -2.8076     3.4563     3.4972 C.ar    
   9 N9            -3.5246     3.5600     2.3891 N.ar    
  10 C10           -3.0089     3.2740     1.2014 C.ar    
  11 N11           -3.7672     3.3857     0.0539 N.pl3   
  12 C12           -5.0597     3.9188     0.1184 C.ar    
  13 C13           -5.3579     4.9070     1.0478 C.ar    
  14 C14           -6.6329     5.4327     1.1112 C.ar    
  15 C15           -7.6171     4.9735     0.2460 C.ar    
  16 C16           -7.3193     3.9852    -0.6829 C.ar    
  17 C17           -6.0429     3.4637    -0.7508 C.ar    
  18 N18           -8.9112     5.5072     0.3106 N.am    
  19 C19           -9.9786     4.7155     0.0863 C.2     
  20 N20          -11.2163     5.2477     0.0484 N.am    
  21 C21          -12.3208     4.4285    -0.1837 C.2     
  22 C22          -12.2969     3.0828    -0.3870 C.2     
  23 C23          -13.6135     2.6544    -0.5790 C.2     
  24 N24          -14.4043     3.6939    -0.4962 N.2     
  25 N25          -13.6207     4.8269    -0.2426 N.pl3   
  26 C26          -14.0906     6.1380    -0.0858 C.ar    
  27 C27          -15.1784     6.5802    -0.8263 C.ar    
  28 C28          -15.6393     7.8729    -0.6695 C.ar    
  29 C29          -15.0183     8.7262     0.2237 C.ar    
  30 C30          -13.9341     8.2887     0.9626 C.ar    
  31 C31          -13.4726     6.9955     0.8148 C.ar    
  32 C32          -16.8198     8.3539    -1.4734 C.3     
  33 C33          -14.0489     1.2350    -0.8377 C.3     
  34 C34          -13.9723     0.4330     0.4629 C.3     
  35 C35          -15.4883     1.2296    -1.3563 C.3     
  36 C36          -13.1280     0.6015    -1.8825 C.3     
  37 N37            0.9154     1.7935    -1.2627 N.pl3   
  38 O38           -9.8250     3.5210    -0.0818 O.2     
  39 H39            2.0247     1.7045     1.1280 H       
  40 H40            0.9651     2.2599     3.2495 H       
  41 H41           -1.5770     2.6013    -0.9970 H       
  42 H42           -3.2759     3.7018     4.4389 H       
  43 H43           -3.4044     3.0949    -0.7974 H       
  44 H44           -4.5925     5.2639     1.7210 H       
  45 H45           -6.8649     6.2008     1.8341 H       
  46 H46           -8.0852     3.6277    -1.3553 H       
  47 H47           -5.8113     2.6951    -1.4733 H       
  48 H48           -9.0388     6.4464     0.5167 H       
  49 H49          -11.3388     6.2005     0.1825 H       
  50 H50          -11.4167     2.4571    -0.3983 H       
  51 H51          -15.6637     5.9142    -1.5245 H       
  52 H52          -15.3804     9.7365     0.3446 H       
  53 H53          -13.4509     8.9576     1.6593 H       
  54 H54          -12.6262     6.6544     1.3923 H       
  55 H55          -17.7395     8.1533    -0.9239 H       
  56 H56          -16.7276     9.4258    -1.6486 H       
  57 H57          -16.8460     7.8305    -2.4291 H       
  58 H58          -14.6284     0.8843     1.2072 H       
  59 H59          -14.2872    -0.5936     0.2758 H       
  60 H60          -12.9469     0.4369     0.8324 H       
  61 H61          -15.5428     1.8010    -2.2830 H       
  62 H62          -15.8032     0.2030    -1.5434 H       
  63 H63          -16.1443     1.6810    -0.6120 H       
  64 H64          -12.1025     0.6054    -1.5131 H       
  65 H65          -13.4429    -0.4251    -2.0696 H       
  66 H66          -13.1825     1.1729    -2.8091 H       
  67 H67            1.8419     1.5060    -1.2625 H       
  68 H68            0.4271     1.8557    -2.0985 H       
@<TRIPOS>BOND
   1    1    2 ar
   2    1   37 1
   3    1    6 ar
   4    2    3 ar
   5    2   39 1
   6    3    4 ar
   7    3   40 1
   8    4    5 ar
   9    4    7 ar
  10    5    6 ar
  11    5   10 ar
  12    6   41 1
  13    7    8 ar
  14    8    9 ar
  15    8   42 1
  16    9   10 ar
  17   10   11 1
  18   11   12 1
  19   11   43 1
  20   12   13 ar
  21   12   17 ar
  22   13   14 ar
  23   13   44 1
  24   14   15 ar
  25   14   45 1
  26   15   16 ar
  27   15   18 1
  28   16   17 ar
  29   16   46 1
  30   17   47 1
  31   18   19 am
  32   18   48 1
  33   19   20 am
  34   19   38 2
  35   20   21 1
  36   20   49 1
  37   21   22 2
  38   21   25 1
  39   22   23 1
  40   22   50 1
  41   23   24 2
  42   23   33 1
  43   24   25 1
  44   25   26 1
  45   26   27 ar
  46   26   31 ar
  47   27   28 ar
  48   27   51 1
  49   28   29 ar
  50   28   32 1
  51   29   30 ar
  52   29   52 1
  53   30   31 ar
  54   30   53 1
  55   31   54 1
  56   32   55 1
  57   32   56 1
  58   32   57 1
  59   33   34 1
  60   33   35 1
  61   33   36 1
  62   34   58 1
  63   34   59 1
  64   34   60 1
  65   35   61 1
  66   35   62 1
  67   35   63 1
  68   36   64 1
  69   36   65 1
  70   36   66 1
  71   37   67 1
  72   37   68 1

#	End of record

