#	Name: ASD03092558
#	Creating user name:	WinNT
#	Creation time:	15. 06. 2019 20:32

#	Modifying user name:	WinNT
#	Modification time:	15. 06. 2019 20:32

#	Program:	/corina/corina34_cracker 3.40 0067  02.08.2006

@<TRIPOS>MOLECULE
ASD03092558
  38   40    0    0    0
SMALL
NO_CHARGES


@<TRIPOS>ATOM
   1 O1            -0.0143     1.2047     0.0087 O.3     
   2 N2             0.0021    -0.0041     0.0020 N.2     
   3 C3             1.2152    -0.4747    -0.0121 C.2     
   4 C4             2.0809     0.6416    -0.0144 C.2     
   5 C5             1.2318     1.7144    -0.0005 C.2     
   6 C6             1.6061     3.1413     0.0029 C.2     
   7 O7             2.7788     3.4622    -0.0070 O.2     
   8 N8             0.6481     4.0892     0.0168 N.am    
   9 C9             1.6179    -1.9268    -0.0230 C.3     
  10 C10            1.0198     5.5063     0.0202 C.3     
  11 C11            1.2848     5.9606     1.4569 C.3     
  12 N12           -3.0047     8.7457    -2.2376 N.pl3   
  13 C13           -2.2495     9.8085    -2.6547 C.2     
  14 C14           -0.9593     9.6004    -2.3491 C.2     
  15 C15           -0.8820     8.2984    -1.6820 C.ar    
  16 C16            0.1642     7.5453    -1.1405 C.ar    
  17 C17           -0.1041     6.3218    -0.5654 C.ar    
  18 C18           -1.4041     5.8364    -0.5231 C.ar    
  19 C19           -2.4446     6.5664    -1.0531 C.ar    
  20 C20           -2.1976     7.8046    -1.6384 C.ar    
  21 C21           -2.7870    11.0306    -3.3538 C.3     
  22 F22            1.4307     8.0141    -1.1807 F       
  23 H23            3.1608     0.6469    -0.0243 H       
  24 H24           -0.2875     3.8332     0.0247 H       
  25 H25            1.7054    -2.2719    -1.0532 H       
  26 H26            2.5774    -2.0416     0.4813 H       
  27 H27            0.8622    -2.5173     0.4950 H       
  28 H28            1.9205     5.6471    -0.5774 H       
  29 H29            0.3841     5.8198     2.0545 H       
  30 H30            2.0977     5.3708     1.8805 H       
  31 H31            1.5613     7.0150     1.4594 H       
  32 H32           -3.9657     8.6689    -2.3445 H       
  33 H33           -0.1346    10.2663    -2.5561 H       
  34 H34           -1.6015     4.8761    -0.0700 H       
  35 H35           -3.4517     6.1782    -1.0146 H       
  36 H36           -3.0581    11.7830    -2.6133 H       
  37 H37           -2.0235    11.4340    -4.0190 H       
  38 H38           -3.6682    10.7587    -3.9349 H       
@<TRIPOS>BOND
   1    1    2 1
   2    1    5 1
   3    2    3 2
   4    3    4 1
   5    3    9 1
   6    4    5 2
   7    4   23 1
   8    5    6 1
   9    6    7 2
  10    6    8 am
  11    8   10 1
  12    8   24 1
  13    9   25 1
  14    9   26 1
  15    9   27 1
  16   10   11 1
  17   10   17 1
  18   10   28 1
  19   11   29 1
  20   11   30 1
  21   11   31 1
  22   12   13 1
  23   12   20 1
  24   12   32 1
  25   13   14 2
  26   13   21 1
  27   14   15 1
  28   14   33 1
  29   15   16 ar
  30   15   20 ar
  31   16   17 ar
  32   16   22 1
  33   17   18 ar
  34   18   19 ar
  35   18   34 1
  36   19   20 ar
  37   19   35 1
  38   21   36 1
  39   21   37 1
  40   21   38 1

#	End of record

