#	Name: ASD03091936
#	Creating user name:	WinNT
#	Creation time:	15. 06. 2019 20:31

#	Modifying user name:	WinNT
#	Modification time:	15. 06. 2019 20:31

#	Program:	/corina/corina34_cracker 3.40 0067  02.08.2006

@<TRIPOS>MOLECULE
ASD03091936
  56   59    0    0    0
SMALL
NO_CHARGES


@<TRIPOS>ATOM
   1 C1            -0.0170     1.3998     0.0097 C.ar    
   2 C2            -1.2283     2.0682     0.0306 C.ar    
   3 C3            -2.4087     1.3494     0.0435 C.ar    
   4 C4            -2.3914    -0.0360     0.0356 C.ar    
   5 C5            -1.1918    -0.7183     0.0148 C.ar    
   6 C6             0.0021    -0.0041     0.0020 C.ar    
   7 O7             1.1631     2.0665     0.0021 O.3     
   8 C8             2.2620     1.4580     0.6804 C.3     
   9 N9             2.4081     0.0565     0.2863 N.am    
  10 C10            1.3144    -0.6822    -0.0142 C.2     
  11 C11           -3.6892    -0.8018     0.0501 C.3     
  12 N12           -4.2528    -0.8360    -1.3060 N.3     
  13 C13           -3.3950    -1.6091    -2.2131 C.3     
  14 C14           -5.6234    -1.3632    -1.2931 C.3     
  15 C15           -6.2285    -1.2489    -2.6941 C.3     
  16 C16           -5.3669    -2.0391    -3.6830 C.3     
  17 C17           -3.9336    -1.5021    -3.6416 C.3     
  18 O18            1.4088    -1.8630    -0.2883 O.2     
  19 C19            3.7406    -0.5484     0.2167 C.3     
  20 C20            3.8150    -1.7311     1.1845 C.3     
  21 C21            5.2066    -2.3628     1.1119 C.3     
  22 C22            4.0045    -1.0383    -1.2085 C.3     
  23 C23            5.3961    -1.6701    -1.2812 C.3     
  24 C24            5.4705    -2.8527    -0.3133 C.3     
  25 O25            3.9351     0.0662    -2.1124 O.3     
  26 C26           -3.7269     2.0794     0.0669 C.3     
  27 F27           -5.3696    -3.3923    -3.3278 F       
  28 F28           -5.8840    -1.8925    -4.9746 F       
  29 H29           -1.2513     3.1479     0.0371 H       
  30 H30           -1.1800    -1.7983     0.0090 H       
  31 H31            3.1773     1.9966     0.4346 H       
  32 H32            2.0934     1.5120     1.7559 H       
  33 H33           -3.5063    -1.8201     0.3934 H       
  34 H34           -4.3925    -0.3121     0.7237 H       
  35 H35           -2.3797    -1.2143    -2.1773 H       
  36 H36           -3.3891    -2.6545    -1.9046 H       
  37 H37           -5.6070    -2.4097    -0.9889 H       
  38 H38           -6.2264    -0.7898    -0.5891 H       
  39 H39           -7.2401    -1.6546    -2.6878 H       
  40 H40           -6.2578    -0.2012    -2.9935 H       
  41 H41           -3.9268    -0.4584    -3.9558 H       
  42 H42           -3.3057    -2.0887    -4.3122 H       
  43 H43            4.4910     0.1931     0.4908 H       
  44 H44            3.6270    -1.3820     2.1999 H       
  45 H45            3.0646    -2.4726     0.9104 H       
  46 H46            5.9570    -1.6213     1.3860 H       
  47 H47            5.2596    -3.2053     1.8014 H       
  48 H48            3.2541    -1.7799    -1.4826 H       
  49 H49            5.5841    -2.0191    -2.2965 H       
  50 H50            6.1465    -0.9285    -1.0071 H       
  51 H51            6.4619    -3.3028    -0.3651 H       
  52 H52            4.7201    -3.5943    -0.5874 H       
  53 H53            4.0927    -0.1712    -3.0365 H       
  54 H54           -4.0596     2.2614    -0.9550 H       
  55 H55           -4.4684     1.4737     0.5879 H       
  56 H56           -3.6062     3.0309     0.5846 H       
@<TRIPOS>BOND
   1    1    6 ar
   2    1    7 1
   3    1    2 ar
   4    2    3 ar
   5    2   29 1
   6    3    4 ar
   7    3   26 1
   8    4    5 ar
   9    4   11 1
  10    5    6 ar
  11    5   30 1
  12    6   10 1
  13    7    8 1
  14    8    9 1
  15    8   31 1
  16    8   32 1
  17    9   10 am
  18    9   19 1
  19   10   18 2
  20   11   12 1
  21   11   33 1
  22   11   34 1
  23   12   14 1
  24   12   13 1
  25   13   17 1
  26   13   35 1
  27   13   36 1
  28   14   15 1
  29   14   37 1
  30   14   38 1
  31   15   16 1
  32   15   39 1
  33   15   40 1
  34   16   17 1
  35   16   27 1
  36   16   28 1
  37   17   41 1
  38   17   42 1
  39   19   22 1
  40   19   20 1
  41   19   43 1
  42   20   21 1
  43   20   44 1
  44   20   45 1
  45   21   24 1
  46   21   46 1
  47   21   47 1
  48   22   23 1
  49   22   25 1
  50   22   48 1
  51   23   24 1
  52   23   49 1
  53   23   50 1
  54   24   51 1
  55   24   52 1
  56   25   53 1
  57   26   54 1
  58   26   55 1
  59   26   56 1

#	End of record

