#	Name: ASD01913972
#	Creating user name:	WinNT
#	Creation time:	15. 06. 2019 20:02

#	Modifying user name:	WinNT
#	Modification time:	15. 06. 2019 20:02

#	Program:	/corina/corina34_cracker 3.40 0067  02.08.2006

@<TRIPOS>MOLECULE
ASD01913972
  53   57    0    0    0
SMALL
NO_CHARGES


@<TRIPOS>ATOM
   1 C1             0.9789     1.6741     0.1568 C.2     
   2 C2             1.7622     0.4879     0.2052 C.2     
   3 N3            -0.2606     1.3339    -0.0340 N.2     
   4 N4            -0.3150    -0.0673    -0.1291 N.pl3   
   5 C5             0.9419    -0.5514     0.0187 C.2     
   6 C6             1.3439    -2.0033    -0.0202 C.3     
   7 C7             3.2479     0.5388     0.4477 C.3     
   8 C8             3.8236     1.8155    -0.1590 C.3     
   9 C9             3.0239     3.0433     0.1735 C.ar    
  10 C10            1.6331     2.9970     0.2970 C.ar    
  11 C11            3.6697     4.2528     0.3574 C.ar    
  12 C12            2.9447     5.3957     0.6358 C.ar    
  13 C13            1.5653     5.3495     0.7311 C.ar    
  14 C14            0.9050     4.1474     0.5607 C.ar    
  15 C15           -1.5228    -0.8667    -0.3489 C.3     
  16 C16            2.2317    -2.2555    -1.2429 C.3     
  17 N17            2.7199    -3.6404    -1.1953 N.am    
  18 C18            3.4032    -4.1072     0.0188 C.3     
  19 C19            2.5023    -3.8343     1.2274 C.3     
  20 C20            2.1219    -2.3521     1.2507 C.3     
  21 C21            2.5440    -4.4670    -2.2452 C.2     
  22 C22            3.1445    -5.8166    -2.2314 C.ar    
  23 C23            2.4938    -6.8796    -2.8614 C.ar    
  24 C24            3.0585    -8.1369    -2.8455 C.ar    
  25 C25            4.2701    -8.3474    -2.2050 C.ar    
  26 C26            4.9202    -7.2956    -1.5774 C.ar    
  27 C27            4.3676    -6.0329    -1.5931 C.ar    
  28 F28            4.8190    -9.5818    -2.1919 F       
  29 O29            1.8912    -4.1019    -3.2035 O.2     
  30 H30            0.4518    -2.6262    -0.0837 H       
  31 H31            3.4409     0.5278     1.5204 H       
  32 H32            3.7208    -0.3278    -0.0143 H       
  33 H33            4.8407     1.9500     0.2091 H       
  34 H34            3.8583     1.7032    -1.2426 H       
  35 H35            4.7459     4.3040     0.2834 H       
  36 H36            3.4598     6.3338     0.7806 H       
  37 H37            1.0062     6.2500     0.9384 H       
  38 H38           -0.1717     4.1042     0.6324 H       
  39 H39           -1.7256    -0.9322    -1.4179 H       
  40 H40           -1.3741    -1.8683     0.0547 H       
  41 H41           -2.3674    -0.3945     0.1529 H       
  42 H42            1.6516    -2.1036    -2.1532 H       
  43 H43            3.0781    -1.5689    -1.2278 H       
  44 H44            3.5960    -5.1772    -0.0590 H       
  45 H45            4.3451    -3.5717     0.1368 H       
  46 H46            1.5995    -4.4405     1.1524 H       
  47 H47            3.0360    -4.0874     2.1435 H       
  48 H48            3.0264    -1.7459     1.3007 H       
  49 H49            1.5010    -2.1503     2.1235 H       
  50 H50            1.5497    -6.7169    -3.3600 H       
  51 H51            2.5562    -8.9596    -3.3324 H       
  52 H52            5.8634    -7.4652    -1.0794 H       
  53 H53            4.8748    -5.2144    -1.1040 H       
@<TRIPOS>BOND
   1    1    2 1
   2    1    3 2
   3    1   10 1
   4    2    7 1
   5    2    5 2
   6    3    4 1
   7    4    5 1
   8    4   15 1
   9    5    6 1
  10    6   16 1
  11    6   20 1
  12    6   30 1
  13    7    8 1
  14    7   31 1
  15    7   32 1
  16    8    9 1
  17    8   33 1
  18    8   34 1
  19    9   10 ar
  20    9   11 ar
  21   10   14 ar
  22   11   12 ar
  23   11   35 1
  24   12   13 ar
  25   12   36 1
  26   13   14 ar
  27   13   37 1
  28   14   38 1
  29   15   39 1
  30   15   40 1
  31   15   41 1
  32   16   17 1
  33   16   42 1
  34   16   43 1
  35   17   18 1
  36   17   21 am
  37   18   19 1
  38   18   44 1
  39   18   45 1
  40   19   20 1
  41   19   46 1
  42   19   47 1
  43   20   48 1
  44   20   49 1
  45   21   22 1
  46   21   29 2
  47   22   23 ar
  48   22   27 ar
  49   23   24 ar
  50   23   50 1
  51   24   25 ar
  52   24   51 1
  53   25   26 ar
  54   25   28 1
  55   26   27 ar
  56   26   52 1
  57   27   53 1

#	End of record

