#	Name: ASD03540019
#	Creating user name:	WinNT
#	Creation time:	15. 06. 2019 20:42

#	Modifying user name:	WinNT
#	Modification time:	15. 06. 2019 20:42

#	Program:	/corina/corina34_cracker 3.40 0067  02.08.2006

@<TRIPOS>MOLECULE
ASD03540019
  47   49    0    0    0
SMALL
NO_CHARGES


@<TRIPOS>ATOM
   1 C1            -0.0164     1.3617     0.0095 C.2     
   2 N2             0.0021    -0.0041     0.0020 N.am    
   3 C3             1.2161    -0.6312    -0.0130 C.2     
   4 C4             2.3785     0.0982    -0.0198 C.2     
   5 C5             2.3148     1.4975    -0.0112 C.2     
   6 N6             1.1050     2.0909     0.0027 N.am    
   7 S7             0.9929    -2.3853    -0.0209 S.3     
   8 C8            -1.1761    -0.8677     0.0082 C.3     
   9 C9            -0.8240    -2.3530    -0.0036 C.3     
  10 C10           -1.3744    -3.0150    -1.2405 C.2     
  11 O11           -1.4740    -2.3873    -2.2681 O.2     
  12 O12           -1.7539    -4.3019    -1.2007 O.3     
  13 O13            3.3346     2.1659    -0.0167 O.2     
  14 O14           -1.0890     1.9342     0.0177 O.2     
  15 C15            1.0169     3.5532     0.0115 C.3     
  16 C16            1.0002     4.0469     1.4352 C.ar    
  17 C17            2.1875     4.3455     2.0771 C.ar    
  18 C18            2.1722     4.7984     3.3831 C.ar    
  19 C19            0.9697     4.9531     4.0470 C.ar    
  20 C20           -0.2177     4.6554     3.4048 C.ar    
  21 C21           -0.2027     4.2066     2.0974 C.ar    
  22 C22           -2.2747    -4.8739    -2.4294 C.3     
  23 C23           -4.2254    -7.9926    -1.5681 C.ar    
  24 C24           -3.9212    -6.6602    -1.7732 C.ar    
  25 C25           -2.6461    -6.3154    -2.1945 C.ar    
  26 C26           -1.7209    -7.3285    -2.3951 C.ar    
  27 C27           -2.0978    -8.6389    -2.1699 C.ar    
  28 N28           -3.3199    -8.9299    -1.7690 N.ar    
  29 H29            3.3351    -0.4029    -0.0313 H       
  30 H30           -1.7644    -0.6531     0.9004 H       
  31 H31           -1.7811    -0.6430    -0.8702 H       
  32 H32           -1.2052    -2.8420     0.8929 H       
  33 H33            1.8784     3.9723    -0.5084 H       
  34 H34            0.1017     3.8650    -0.4919 H       
  35 H35            3.1271     4.2246     1.5585 H       
  36 H36            3.0999     5.0310     3.8849 H       
  37 H37            0.9578     5.3062     5.0676 H       
  38 H38           -1.1572     4.7759     3.9236 H       
  39 H39           -1.1305     3.9776     1.5944 H       
  40 H40           -3.1579    -4.3177    -2.7434 H       
  41 H41           -1.5137    -4.8170    -3.2078 H       
  42 H42           -5.2151    -8.2691    -1.2356 H       
  43 H43           -4.6673    -5.8971    -1.6073 H       
  44 H44           -0.7185    -7.0964    -2.7234 H       
  45 H45           -1.3830    -9.4338    -2.3238 H       
  46 H46            8.3351    10.3062    10.0676 H       
  47 Cl47           8.3351    11.6762    10.0676 Cl      
@<TRIPOS>BOND
   1    1    2 am
   2    1    6 am
   3    1   14 2
   4    2    3 1
   5    2    8 1
   6    3    4 2
   7    3    7 1
   8    4    5 1
   9    4   29 1
  10    5    6 am
  11    5   13 2
  12    6   15 1
  13    7    9 1
  14    8    9 1
  15    8   30 1
  16    8   31 1
  17    9   10 1
  18    9   32 1
  19   10   11 2
  20   10   12 1
  21   12   22 1
  22   15   16 1
  23   15   33 1
  24   15   34 1
  25   16   17 ar
  26   16   21 ar
  27   17   18 ar
  28   17   35 1
  29   18   19 ar
  30   18   36 1
  31   19   20 ar
  32   19   37 1
  33   20   21 ar
  34   20   38 1
  35   21   39 1
  36   22   25 1
  37   22   40 1
  38   22   41 1
  39   23   24 ar
  40   23   28 ar
  41   23   42 1
  42   24   25 ar
  43   24   43 1
  44   25   26 ar
  45   26   27 ar
  46   26   44 1
  47   27   28 ar
  48   27   45 1
  49   46   47 1

#	End of record

