#	Name: ASD01948342
#	Creating user name:	WinNT
#	Creation time:	15. 06. 2019 20:14

#	Modifying user name:	WinNT
#	Modification time:	15. 06. 2019 20:14

#	Program:	/corina/corina34_cracker 3.40 0067  02.08.2006

@<TRIPOS>MOLECULE
ASD01948342
  56   58    0    0    0
SMALL
NO_CHARGES


@<TRIPOS>ATOM
   1 C1             0.2476     1.8422     0.2846 C.2     
   2 N2             0.3038     0.4809     0.3490 N.am    
   3 C3             1.4817    -0.1688     0.3163 C.2     
   4 C4             2.6367     1.9286     0.1478 C.2     
   5 C5             1.3794     2.5782     0.1854 C.2     
   6 C6             3.1257     3.4687    -2.1266 C.ar    
   7 C7             4.0209     3.4854    -1.0660 C.ar    
   8 N8             3.8056     2.6640     0.0461 N.pl3   
   9 C9             3.3409     4.2805    -3.2239 C.ar    
  10 C10            4.4472     5.1096    -3.2674 C.ar    
  11 C11            5.3423     5.1299    -2.2120 C.ar    
  12 C12            5.1329     4.3202    -1.1112 C.ar    
  13 N13            1.3068     3.9793     0.1205 N.am    
  14 S14           -0.1683     4.7317     0.0962 S.o2    
  15 C15           -0.8944     4.3568     1.7157 C.3     
  16 O16            1.5052    -1.3889     0.3758 O.2     
  17 C17           -0.9393    -0.2868     0.4560 C.3     
  18 F18            6.0065     4.3399    -0.0808 F       
  19 Br19           4.7374     6.2175    -4.7720 Br      
  20 O20            0.1451     6.1142    -0.0019 O.2     
  21 O21           -0.8834     4.0676    -0.9367 O.2     
  22 C22            2.6788     0.5462     0.2139 C.2     
  23 C23            3.9993    -0.1790     0.1771 C.3     
  24 C24           -2.2354     5.0096     2.0568 C.3     
  25 C25           -2.1713     3.5143     1.7395 C.3     
  26 C26            0.1051     4.1580     2.8569 C.3     
  27 C27            0.8958     5.4499     3.0732 C.3     
  28 C28           -0.0474     6.5484     3.5680 C.3     
  29 C29            1.9900     5.2097     4.1153 C.3     
  30 O30            2.8014     6.3802     4.2325 O.3     
  31 O31            0.6659     7.7833     3.6590 O.3     
  32 H32           -0.7113     2.3385     0.3087 H       
  33 H33            2.2640     2.8184    -2.0962 H       
  34 H34            4.4752     2.6096     0.7458 H       
  35 H35            2.6442     4.2674    -4.0491 H       
  36 H36            6.2053     5.7783    -2.2487 H       
  37 H37            2.1205     4.5063     0.0900 H       
  38 H38           -1.3045    -0.5280    -0.5423 H       
  39 H39           -0.7509    -1.2085     1.0065 H       
  40 H40           -1.6875     0.3049     0.9834 H       
  41 H41            3.8227    -1.2543     0.1502 H       
  42 H42            4.5536     0.1205    -0.7123 H       
  43 H43            4.5767     0.0722     1.0668 H       
  44 H44           -2.4058     5.2971     3.0943 H       
  45 H45           -2.6814     5.6643     1.3081 H       
  46 H46           -2.5750     3.1852     0.7820 H       
  47 H47           -2.2994     2.8180     2.5682 H       
  48 H48           -0.4324     3.9038     3.7705 H       
  49 H49            0.7913     3.3503     2.6023 H       
  50 H50            1.3515     5.7588     2.1325 H       
  51 H51           -0.8760     6.6581     2.8683 H       
  52 H52           -0.4348     6.2792     4.5506 H       
  53 H53            1.5316     4.9875     5.0789 H       
  54 H54            2.6091     4.3681     3.8047 H       
  55 H55            3.5175     6.2994     4.8773 H       
  56 H56            0.1505     8.5081     4.0386 H       
@<TRIPOS>BOND
   1    1    2 1
   2    1    5 2
   3    1   32 1
   4    2    3 am
   5    2   17 1
   6    3   22 1
   7    3   16 2
   8    4    5 1
   9    4    8 1
  10    4   22 2
  11    5   13 1
  12    6    7 ar
  13    6    9 ar
  14    6   33 1
  15    7    8 1
  16    7   12 ar
  17    8   34 1
  18    9   10 ar
  19    9   35 1
  20   10   11 ar
  21   10   19 1
  22   11   12 ar
  23   11   36 1
  24   12   18 1
  25   13   14 am
  26   13   37 1
  27   14   15 1
  28   14   20 2
  29   14   21 2
  30   15   24 1
  31   15   26 1
  32   15   25 1
  33   17   38 1
  34   17   39 1
  35   17   40 1
  36   22   23 1
  37   23   41 1
  38   23   42 1
  39   23   43 1
  40   24   25 1
  41   24   44 1
  42   24   45 1
  43   25   46 1
  44   25   47 1
  45   26   27 1
  46   26   48 1
  47   26   49 1
  48   27   28 1
  49   27   29 1
  50   27   50 1
  51   28   31 1
  52   28   51 1
  53   28   52 1
  54   29   30 1
  55   29   53 1
  56   29   54 1
  57   30   55 1
  58   31   56 1

#	End of record

