#	Name: ASD07930849
#	Creating user name:	WinNT
#	Creation time:	15. 06. 2019 21:13

#	Modifying user name:	WinNT
#	Modification time:	15. 06. 2019 21:13

#	Program:	/corina/corina34_cracker 3.40 0067  02.08.2006

@<TRIPOS>MOLECULE
ASD07930849
  51   55    0    0    0
SMALL
NO_CHARGES


@<TRIPOS>ATOM
   1 N1            -0.0156     1.2970     0.0092 N.2     
   2 C2             0.0021    -0.0041     0.0020 C.2     
   3 N3             1.1480    -0.7297    -0.0124 N.am    
   4 C4             2.3519    -0.1117    -0.0201 C.2     
   5 C5             2.3587     1.3569    -0.0128 C.ar    
   6 C6             3.5563     2.0887    -0.0204 C.ar    
   7 C7             3.5523     3.4430    -0.0140 C.ar    
   8 C8             2.3428     4.1689     0.0006 C.ar    
   9 C9             1.1059     3.4790     0.0087 C.ar    
  10 C10            1.1175     2.0190     0.0022 C.ar    
  11 C11           -0.0902     4.2034     0.0237 C.ar    
  12 C12           -0.0542     5.5674     0.0302 C.ar    
  13 C13            1.1589     6.2482     0.0222 C.ar    
  14 C14            2.3424     5.5722     0.0077 C.ar    
  15 O15            3.3897    -0.7488    -0.0323 O.2     
  16 C16            0.1935    -4.1909    -1.2231 C.3     
  17 C17            0.3261    -2.6663    -1.2646 C.3     
  18 C18            1.0819    -2.1932    -0.0191 C.3     
  19 C19            0.3398    -2.6784     1.2300 C.3     
  20 C20            0.2067    -4.2025     1.1751 C.3     
  21 O21           -0.4779    -4.5768    -0.0221 O.3     
  22 O22            1.0481    -2.2815    -2.4362 O.3     
  23 C23            4.8626     4.1874    -0.0220 C.3     
  24 C24            6.0179     3.6660     2.1412 C.ar    
  25 C25            5.2506     4.5366     1.3917 C.ar    
  26 C26            4.8422     5.7361     1.9557 C.ar    
  27 C27            5.2224     6.0165     3.2586 C.ar    
  28 C28            5.9916     5.0971     3.9492 C.ar    
  29 N29            6.3624     3.9646     3.3800 N.ar    
  30 O30            7.1491     3.0469     4.1176 O.3     
  31 Cl31           6.4753     5.4361     5.5816 Cl      
  32 H32           -0.9405    -0.5313     0.0082 H       
  33 H33            4.4990     1.5619    -0.0312 H       
  34 H34           -1.0381     3.6857     0.0296 H       
  35 H35           -0.9788     6.1253     0.0414 H       
  36 H36            1.1630     7.3282     0.0273 H       
  37 H37            3.2763     6.1145     0.0020 H       
  38 H38           -0.3808    -4.5294    -2.0855 H       
  39 H39            1.1851    -4.6428    -1.2465 H       
  40 H40           -0.6658    -2.2147    -1.2822 H       
  41 H41            2.0911    -2.6050    -0.0267 H       
  42 H42            0.9004    -2.3935     2.1203 H       
  43 H43           -0.6518    -2.2271     1.2628 H       
  44 H44            1.1985    -4.6546     1.1831 H       
  45 H45           -0.3581    -4.5495     2.0404 H       
  46 H46            0.6285    -2.5535    -3.2639 H       
  47 H47            5.6346     3.5592    -0.4661 H       
  48 H48            4.7575     5.1016    -0.6063 H       
  49 H49            6.3358     2.7282     1.7101 H       
  50 H50            4.2421     6.4355     1.3925 H       
  51 H51            4.9223     6.9413     3.7287 H       
@<TRIPOS>BOND
   1    1    2 2
   2    1   10 1
   3    2    3 1
   4    2   32 1
   5    3    4 am
   6    3   18 1
   7    4    5 1
   8    4   15 2
   9    5    6 ar
  10    5   10 ar
  11    6    7 ar
  12    6   33 1
  13    7    8 ar
  14    7   23 1
  15    8    9 ar
  16    8   14 ar
  17    9   10 ar
  18    9   11 ar
  19   11   12 ar
  20   11   34 1
  21   12   13 ar
  22   12   35 1
  23   13   14 ar
  24   13   36 1
  25   14   37 1
  26   16   17 1
  27   16   21 1
  28   16   38 1
  29   16   39 1
  30   17   18 1
  31   17   22 1
  32   17   40 1
  33   18   19 1
  34   18   41 1
  35   19   20 1
  36   19   42 1
  37   19   43 1
  38   20   21 1
  39   20   44 1
  40   20   45 1
  41   22   46 1
  42   23   25 1
  43   23   47 1
  44   23   48 1
  45   24   25 ar
  46   24   29 ar
  47   24   49 1
  48   25   26 ar
  49   26   27 ar
  50   26   50 1
  51   27   28 ar
  52   27   51 1
  53   28   29 ar
  54   28   31 1
  55   29   30 1

#	End of record

