#	Name: ASD07930419
#	Creating user name:	WinNT
#	Creation time:	15. 06. 2019 21:12

#	Modifying user name:	WinNT
#	Modification time:	15. 06. 2019 21:12

#	Program:	/corina/corina34_cracker 3.40 0067  02.08.2006

@<TRIPOS>MOLECULE
ASD07930419
  44   46    0    0    0
SMALL
NO_CHARGES


@<TRIPOS>ATOM
   1 N1             0.1945     0.8900     0.9071 N.2     
   2 N2            -1.0821    -1.0333     0.5429 N.pl3   
   3 C3            -1.2787    -1.9098    -0.6165 C.3     
   4 C4            -0.2382    -3.0377    -0.5805 C.3     
   5 S5             1.4184    -2.2848    -0.5228 S.o2    
   6 N6             1.2766    -1.1804     0.7167 N.am    
   7 C7             0.1295    -0.3995     0.7280 C.2     
   8 C8             2.3115    -1.0409     1.7442 C.3     
   9 C9            -1.1101    -1.1000    -1.9036 C.3     
  10 C10           -2.6640    -2.5015    -0.5709 C.ar    
  11 C11           -2.9094    -3.7493    -1.1127 C.ar    
  12 N12           -4.1176    -4.2771    -1.0791 N.ar    
  13 C13           -5.1365    -3.6451    -0.5322 C.ar    
  14 C14           -4.9690    -2.3875     0.0334 C.ar    
  15 C15           -3.7048    -1.8035     0.0196 C.ar    
  16 O16            2.3819    -3.2208    -0.0593 O.2     
  17 O17            1.6539    -1.4949    -1.6803 O.2     
  18 N18           -6.0530    -1.7197     0.6125 N.am    
  19 C19           -6.1417    -0.3777     0.5264 C.2     
  20 O20           -5.2388     0.2599     0.0209 O.2     
  21 C21           -7.3387     0.3198     1.0476 C.ar    
  22 N22           -8.3213    -0.3826     1.5986 N.ar    
  23 C23           -9.4014     0.1968     2.0737 C.ar    
  24 C24           -9.5543     1.5759     2.0151 C.ar    
  25 C25           -8.5493     2.3478     1.4463 C.ar    
  26 C26           -7.4213     1.7086     0.9604 C.ar    
  27 F27          -10.6691     2.1605     2.5058 F       
  28 H28            1.0549     1.3191     1.0354 H       
  29 H29           -1.8038    -0.8963     1.1763 H       
  30 H30           -0.3934    -3.6526     0.3060 H       
  31 H31           -0.3315    -3.6524    -1.4757 H       
  32 H32            3.0439    -0.2999     1.4240 H       
  33 H33            1.8538    -0.7188     2.6796 H       
  34 H34            2.8068    -2.0003     1.8935 H       
  35 H35           -0.1072    -0.6744    -1.9363 H       
  36 H36           -1.2564    -1.7520    -2.7648 H       
  37 H37           -1.8467    -0.2969    -1.9267 H       
  38 H38           -2.1005    -4.2995    -1.5702 H       
  39 H39           -6.1116    -4.1095    -0.5240 H       
  40 H40           -3.5416    -0.8271     0.4514 H       
  41 H41           -6.7408    -2.2226     1.0761 H       
  42 H42          -10.1801    -0.4075     2.5151 H       
  43 H43           -8.6437     3.4220     1.3881 H       
  44 H44           -6.6203     2.2775     0.5118 H       
@<TRIPOS>BOND
   1    1    7 2
   2    1   28 1
   3    2    3 1
   4    2    7 1
   5    2   29 1
   6    3    4 1
   7    3    9 1
   8    3   10 1
   9    4    5 1
  10    4   30 1
  11    4   31 1
  12    5    6 am
  13    5   16 2
  14    5   17 2
  15    6    7 1
  16    6    8 1
  17    8   32 1
  18    8   33 1
  19    8   34 1
  20    9   35 1
  21    9   36 1
  22    9   37 1
  23   10   11 ar
  24   10   15 ar
  25   11   12 ar
  26   11   38 1
  27   12   13 ar
  28   13   14 ar
  29   13   39 1
  30   14   15 ar
  31   14   18 1
  32   15   40 1
  33   18   19 am
  34   18   41 1
  35   19   20 2
  36   19   21 1
  37   21   22 ar
  38   21   26 ar
  39   22   23 ar
  40   23   24 ar
  41   23   42 1
  42   24   25 ar
  43   24   27 1
  44   25   26 ar
  45   25   43 1
  46   26   44 1

#	End of record

