#	Name: ASD04590410
#	Creating user name:	WinNT
#	Creation time:	15. 06. 2019 20:50

#	Modifying user name:	WinNT
#	Modification time:	15. 06. 2019 20:50

#	Program:	/corina/corina34_cracker 3.40 0067  02.08.2006

@<TRIPOS>MOLECULE
ASD04590410
  43   46    0    0    0
SMALL
NO_CHARGES


@<TRIPOS>ATOM
   1 C1            -0.0167     1.3832     0.0096 C.ar    
   2 C2             0.0021    -0.0041     0.0020 C.ar    
   3 C3             2.4020     0.0223    -0.0204 C.ar    
   4 C4             2.3769     1.4283    -0.0130 C.ar    
   5 C5             1.1624     2.0986     0.0022 C.ar    
   6 N6             3.7040    -0.3552    -0.0350 N.2     
   7 C7             4.4709     0.7083    -0.0371 C.2     
   8 N8             3.6969     1.8375    -0.0238 N.pl3   
   9 C9             5.9482     0.6906    -0.0520 C.2     
  10 C10            6.7657    -0.4631    -0.0668 C.2     
  11 C11            8.0579    -0.0539    -0.0775 C.2     
  12 N12            8.0646     1.3050    -0.0697 N.pl3   
  13 N13            6.7360     1.7480    -0.0596 N.2     
  14 N14            6.3188    -1.7944    -0.0696 N.am    
  15 C15            7.2108    -2.8046    -0.0843 C.2     
  16 O16            8.4027    -2.5633    -0.0953 O.2     
  17 C17            6.7414    -4.2031    -0.0872 C.ar    
  18 C18            1.1969    -0.6870    -0.0126 C.ar    
  19 C19            7.2127    -6.5677    -0.1051 C.ar    
  20 C20            5.8577    -6.8321    -0.0925 C.ar    
  21 C21            4.9410    -5.7933    -0.0831 C.ar    
  22 C22            5.3730    -4.4849    -0.0804 C.ar    
  23 C23            7.6654    -5.2567    -0.1026 C.ar    
  24 O24            8.9965    -4.9954    -0.1154 O.3     
  25 C25            9.8782    -6.1199    -0.1306 C.3     
  26 C26           11.3280    -5.6310    -0.1435 C.3     
  27 H27           -0.9614     1.9066     0.0170 H       
  28 H28           -0.9283    -0.5525     0.0080 H       
  29 H29            1.1403     3.1784     0.0079 H       
  30 H30            4.0155     2.7537    -0.0223 H       
  31 H31            8.9276    -0.6941    -0.0895 H       
  32 H32            8.8529     1.8702    -0.0744 H       
  33 H33            5.3681    -1.9869    -0.0608 H       
  34 H34            1.2037    -1.7669    -0.0178 H       
  35 H35            7.9212    -7.3829    -0.1124 H       
  36 H36            5.5102    -7.8547    -0.0949 H       
  37 H37            3.8830    -6.0101    -0.0733 H       
  38 H38            4.6548    -3.6783    -0.0727 H       
  39 H39            9.7076    -6.7275     0.7580 H       
  40 H40            9.6886    -6.7182    -1.0218 H       
  41 H41           11.4986    -5.0234    -1.0322 H       
  42 H42           11.5176    -5.0327     0.7476 H       
  43 H43           12.0005    -6.4887    -0.1552 H       
@<TRIPOS>BOND
   1    1    2 ar
   2    1    5 ar
   3    1   27 1
   4    2   18 ar
   5    2   28 1
   6    3    4 ar
   7    3    6 1
   8    3   18 ar
   9    4    5 ar
  10    4    8 1
  11    5   29 1
  12    6    7 2
  13    7    8 1
  14    7    9 1
  15    8   30 1
  16    9   10 1
  17    9   13 2
  18   10   11 2
  19   10   14 1
  20   11   12 1
  21   11   31 1
  22   12   13 1
  23   12   32 1
  24   14   15 am
  25   14   33 1
  26   15   16 2
  27   15   17 1
  28   17   23 ar
  29   17   22 ar
  30   18   34 1
  31   19   20 ar
  32   19   23 ar
  33   19   35 1
  34   20   21 ar
  35   20   36 1
  36   21   22 ar
  37   21   37 1
  38   22   38 1
  39   23   24 1
  40   24   25 1
  41   25   26 1
  42   25   39 1
  43   25   40 1
  44   26   41 1
  45   26   42 1
  46   26   43 1

#	End of record

