#	Name: ASD01882870
#	Creating user name:	WinNT
#	Creation time:	15. 06. 2019 19:45

#	Modifying user name:	WinNT
#	Modification time:	15. 06. 2019 19:45

#	Program:	/corina/corina34_cracker 3.40 0067  02.08.2006

@<TRIPOS>MOLECULE
ASD01882870
  44   45    0    0    0
SMALL
NO_CHARGES


@<TRIPOS>ATOM
   1 C1            -0.7176     0.5945     0.9240 C.ar    
   2 C2            -0.4319    -0.7607     0.8412 C.ar    
   3 C3             0.8219    -1.1777     0.4389 C.ar    
   4 C4             1.7922    -0.2457     0.1190 C.ar    
   5 C5             1.5100     1.1052     0.2007 C.ar    
   6 C6             0.2572     1.5274     0.6022 C.ar    
   7 O7            -1.9522     1.0072     1.3142 O.3     
   8 C8             3.1633    -0.7046    -0.3199 C.3     
   9 C9             3.4246    -0.2053    -1.7405 C.3     
  10 C10            4.7928    -0.6833    -2.2239 C.3     
  11 C11            5.8982    -0.2685    -1.2659 C.3     
  12 C12            5.6186    -0.5315     0.2040 C.3     
  13 C13            4.2128    -0.1084     0.6151 C.3     
  14 C14            5.8546    -1.9995     0.5646 C.3     
  15 C15            6.6175     0.3096     1.0312 C.3     
  16 C16            4.7797    -2.1931    -2.4557 C.3     
  17 C17            5.0672    -0.0064    -3.5849 C.3     
  18 C18            1.1330    -2.6495     0.3488 C.3     
  19 H19           -1.1891    -1.4890     1.0916 H       
  20 H20            2.2694     1.8311    -0.0496 H       
  21 H21            0.0371     2.5828     0.6655 H       
  22 H22           -2.0418     1.1317     2.2690 H       
  23 H23            3.1963    -1.7899    -0.2850 H       
  24 H24            2.6501    -0.5890    -2.4073 H       
  25 H25            3.3959     0.8857    -1.7525 H       
  26 H26            6.8240    -0.7925    -1.5487 H       
  27 H27            6.0952     0.8062    -1.4007 H       
  28 H28            4.1402     0.9823     0.5890 H       
  29 H29            4.0170    -0.4442     1.6371 H       
  30 H30            6.8754    -2.2783     0.3034 H       
  31 H31            5.7022    -2.1399     1.6347 H       
  32 H32            5.1542    -2.6264     0.0126 H       
  33 H33            6.4794     1.3663     0.8025 H       
  34 H34            6.4414     0.1416     2.0936 H       
  35 H35            7.6363     0.0138     0.7806 H       
  36 H36            4.1310    -2.4253    -3.3003 H       
  37 H37            5.7918    -2.5366    -2.6696 H       
  38 H38            4.4069    -2.6946    -1.5626 H       
  39 H39            5.0646     1.0763    -3.4593 H       
  40 H40            6.0392    -0.3263    -3.9604 H       
  41 H41            4.2914    -0.2916    -4.2954 H       
  42 H42            0.9990    -2.9869    -0.6790 H       
  43 H43            2.1642    -2.8224     0.6565 H       
  44 H44            0.4606    -3.2037     1.0037 H       
@<TRIPOS>BOND
   1    1    2 ar
   2    1    6 ar
   3    1    7 1
   4    2    3 ar
   5    2   19 1
   6    3    4 ar
   7    3   18 1
   8    4    5 ar
   9    4    8 1
  10    5    6 ar
  11    5   20 1
  12    6   21 1
  13    7   22 1
  14    8    9 1
  15    8   13 1
  16    8   23 1
  17    9   10 1
  18    9   24 1
  19    9   25 1
  20   10   11 1
  21   10   16 1
  22   10   17 1
  23   11   12 1
  24   11   26 1
  25   11   27 1
  26   12   13 1
  27   12   14 1
  28   12   15 1
  29   13   28 1
  30   13   29 1
  31   14   30 1
  32   14   31 1
  33   14   32 1
  34   15   33 1
  35   15   34 1
  36   15   35 1
  37   16   36 1
  38   16   37 1
  39   16   38 1
  40   17   39 1
  41   17   40 1
  42   17   41 1
  43   18   42 1
  44   18   43 1
  45   18   44 1

#	End of record

