#	Name: ASD01917889
#	Creating user name:	WinNT
#	Creation time:	15. 06. 2019 20:10

#	Modifying user name:	WinNT
#	Modification time:	15. 06. 2019 20:10

#	Program:	/corina/corina34_cracker 3.40 0067  02.08.2006

@<TRIPOS>MOLECULE
ASD01917889
  45   47    0    0    0
SMALL
NO_CHARGES


@<TRIPOS>ATOM
   1 C1            -0.3404     2.8107    -0.5998 C.2     
   2 C2             0.0393     1.5622    -0.2693 C.2     
   3 C3            -0.9510     0.4546     0.0559 C.3     
   4 C4            -2.3031     1.0787     0.4094 C.3     
   5 N5            -2.6392     2.0996    -0.5944 N.am    
   6 C6            -1.7723     3.2877    -0.6827 C.3     
   7 C7            -3.7052     1.9532    -1.4060 C.2     
   8 O8            -4.0202     2.8487    -2.1609 O.2     
   9 S9             1.0978     3.7744    -0.9056 S.3     
  10 C10            2.0855     2.4230    -0.5597 C.2     
  11 N11            1.3561     1.4064    -0.2602 N.2     
  12 C12            3.5920     2.4222    -0.6003 C.3     
  13 O13            4.0330     2.0646    -1.9116 O.3     
  14 C14            5.3752     2.0167    -2.1195 C.ar    
  15 C15            5.8730     1.6764    -3.3689 C.ar    
  16 C16            7.2378     1.6284    -3.5777 C.ar    
  17 C17            8.1073     1.9190    -2.5427 C.ar    
  18 C18            7.6136     2.2579    -1.2964 C.ar    
  19 C19            6.2497     2.3134    -1.0842 C.ar    
  20 C20           -4.5056     0.6767    -1.3756 C.3     
  21 C21           -5.5828     0.7242    -2.4612 C.3     
  22 C22           -3.5779    -0.5132    -1.6294 C.3     
  23 C23           -5.1689     0.5231    -0.0055 C.3     
  24 H24           -1.0659    -0.1973    -0.8101 H       
  25 H25           -0.5844    -0.1248     0.9033 H       
  26 H26           -3.0713     0.3054     0.4141 H       
  27 H27           -2.2443     1.5416     1.3945 H       
  28 H28           -1.9870     3.9651     0.1439 H       
  29 H29           -1.9373     3.7968    -1.6323 H       
  30 H30            3.9627     3.4164    -0.3508 H       
  31 H31            3.9745     1.7002     0.1212 H       
  32 H32            5.1943     1.4490    -4.1776 H       
  33 H33            7.6259     1.3633    -4.5500 H       
  34 H34            9.1739     1.8809    -2.7079 H       
  35 H35            8.2948     2.4838    -0.4894 H       
  36 H36            5.8645     2.5782    -0.1106 H       
  37 H37           -5.1102     0.8336    -3.4374 H       
  38 H38           -6.1617    -0.1991    -2.4392 H       
  39 H39           -6.2437     1.5719    -2.2804 H       
  40 H40           -2.9040    -0.6358    -0.7815 H       
  41 H41           -4.1731    -1.4178    -1.7542 H       
  42 H42           -2.9958    -0.3338    -2.5333 H       
  43 H43           -6.0250     1.1946     0.0611 H       
  44 H44           -5.5037    -0.5062     0.1228 H       
  45 H45           -4.4506     0.7716     0.7758 H       
@<TRIPOS>BOND
   1    1    2 2
   2    1    9 1
   3    1    6 1
   4    2    3 1
   5    2   11 1
   6    3    4 1
   7    3   24 1
   8    3   25 1
   9    4    5 1
  10    4   26 1
  11    4   27 1
  12    5    6 1
  13    5    7 am
  14    6   28 1
  15    6   29 1
  16    7    8 2
  17    7   20 1
  18    9   10 1
  19   10   11 2
  20   10   12 1
  21   12   13 1
  22   12   30 1
  23   12   31 1
  24   13   14 1
  25   14   15 ar
  26   14   19 ar
  27   15   16 ar
  28   15   32 1
  29   16   17 ar
  30   16   33 1
  31   17   18 ar
  32   17   34 1
  33   18   19 ar
  34   18   35 1
  35   19   36 1
  36   20   21 1
  37   20   22 1
  38   20   23 1
  39   21   37 1
  40   21   38 1
  41   21   39 1
  42   22   40 1
  43   22   41 1
  44   22   42 1
  45   23   43 1
  46   23   44 1
  47   23   45 1

#	End of record

