#	Name: ASD08710118
#	Creating user name:	WinNT
#	Creation time:	15. 06. 2019 21:19

#	Modifying user name:	WinNT
#	Modification time:	15. 06. 2019 21:19

#	Program:	/corina/corina34_cracker 3.40 0067  02.08.2006

@<TRIPOS>MOLECULE
ASD08710118
  50   51    0    0    0
SMALL
NO_CHARGES


@<TRIPOS>ATOM
   1 N1            -0.0179     1.4654     0.0101 N.am    
   2 C2             0.0021    -0.0041     0.0020 C.3     
   3 C3             0.8261    -0.4764    -1.2022 C.3     
   4 N4             2.1040     0.2493    -1.2105 N.am    
   5 C5             2.0841     1.7188    -1.2024 C.3     
   6 C6             1.2601     2.1912     0.0018 C.3     
   7 C7            -1.1872     2.1355     0.0193 C.2     
   8 O8            -2.2375     1.5246     0.0210 O.2     
   9 O9            -1.1915     3.4819     0.0266 O.3     
  10 S10            3.5407    -0.5740    -1.2281 S.o2    
  11 O11            4.5153     0.3081    -0.6883 O.2     
  12 O12            3.2726    -1.8605    -0.6876 O.2     
  13 C13            3.9775    -0.8248    -2.9166 C.ar    
  14 C14            3.1886    -1.6237    -3.7234 C.ar    
  15 C15            3.5312    -1.8205    -5.0478 C.ar    
  16 C16            4.6626    -1.2181    -5.5660 C.ar    
  17 C17            5.4508    -0.4188    -4.7598 C.ar    
  18 C18            5.1057    -0.2184    -3.4360 C.ar    
  19 C19            6.6843     0.2375    -5.3245 C.3     
  20 F20            6.8207    -0.1087    -6.6731 F       
  21 F21            6.5677     1.6268    -5.2092 F       
  22 F22            7.8095    -0.1965    -4.6155 F       
  23 C23            1.9553    -2.2803    -3.1585 C.3     
  24 C24           -2.4873     4.1369     0.0364 C.3     
  25 C25           -3.2619     3.7165     1.2870 C.3     
  26 C26           -2.2917     5.6543     0.0437 C.3     
  27 C27           -3.2738     3.7300    -1.2114 C.3     
  28 H28            0.4576    -0.3688     0.9227 H       
  29 H29           -1.0165    -0.3833    -0.0803 H       
  30 H30            1.0139    -1.5469    -1.1197 H       
  31 H31            0.2810    -0.2679    -2.1228 H       
  32 H32            3.1027     2.0980    -1.1201 H       
  33 H33            1.6286     2.0836    -2.1231 H       
  34 H34            1.0723     3.2617    -0.0807 H       
  35 H35            1.8051     1.9827     0.9224 H       
  36 H36            2.9153    -2.4451    -5.6778 H       
  37 H37            4.9307    -1.3724    -6.6008 H       
  38 H38            5.7195     0.4092    -2.8070 H       
  39 H39            1.0993    -1.6181    -3.2884 H       
  40 H40            1.7714    -3.2187    -3.6816 H       
  41 H41            2.1033    -2.4789    -2.0970 H       
  42 H42           -2.7016     4.0063     2.1759 H       
  43 H43           -4.2347     4.2082     1.2943 H       
  44 H44           -3.4013     2.6354     1.2818 H       
  45 H45           -1.7399     5.9538    -0.8473 H       
  46 H46           -3.2645     6.1460     0.0510 H       
  47 H47           -1.7314     5.9441     0.9326 H       
  48 H48           -3.4131     2.6490    -1.2166 H       
  49 H49           -4.2466     4.2218    -1.2041 H       
  50 H50           -2.7220     4.0295    -2.1024 H       
@<TRIPOS>BOND
   1    1    2 1
   2    1    6 1
   3    1    7 am
   4    2    3 1
   5    2   28 1
   6    2   29 1
   7    3    4 1
   8    3   30 1
   9    3   31 1
  10    4    5 1
  11    4   10 am
  12    5    6 1
  13    5   32 1
  14    5   33 1
  15    6   34 1
  16    6   35 1
  17    7    8 2
  18    7    9 1
  19    9   24 1
  20   10   11 2
  21   10   12 2
  22   10   13 1
  23   13   14 ar
  24   13   18 ar
  25   14   15 ar
  26   14   23 1
  27   15   16 ar
  28   15   36 1
  29   16   17 ar
  30   16   37 1
  31   17   18 ar
  32   17   19 1
  33   18   38 1
  34   19   20 1
  35   19   21 1
  36   19   22 1
  37   23   39 1
  38   23   40 1
  39   23   41 1
  40   24   25 1
  41   24   26 1
  42   24   27 1
  43   25   42 1
  44   25   43 1
  45   25   44 1
  46   26   45 1
  47   26   46 1
  48   26   47 1
  49   27   48 1
  50   27   49 1
  51   27   50 1

#	End of record

