#	Name: ASD01913432
#	Creating user name:	WinNT
#	Creation time:	15. 06. 2019 20:01

#	Modifying user name:	WinNT
#	Modification time:	15. 06. 2019 20:01

#	Program:	/corina/corina34_cracker 3.40 0067  02.08.2006

@<TRIPOS>MOLECULE
ASD01913432
  35   37    0    0    0
SMALL
NO_CHARGES


@<TRIPOS>ATOM
   1 C1             0.3802     0.4633     1.3212 C.ar    
   2 C2            -0.0549    -0.0157     0.0897 C.ar    
   3 C3             0.7166     0.2264    -1.0381 C.ar    
   4 N4             1.8462     0.8996    -0.9483 N.ar    
   5 C5             2.2867     1.3670     0.2035 C.ar    
   6 C6             1.5732     1.1664     1.3702 C.ar    
   7 C7            -1.1465    -2.0626    -0.1100 C.ar    
   8 C8             0.0866    -2.7133    -0.1207 C.ar    
   9 C9             0.1217    -4.0882    -0.2204 C.ar    
  10 N10           -0.9926    -4.7906    -0.3054 N.ar    
  11 C11           -2.1843    -4.2118    -0.2987 C.ar    
  12 C12           -2.3007    -2.8323    -0.2011 C.ar    
  13 N13           -3.3324    -4.9960    -0.3912 N.am    
  14 C14           -3.2268    -6.3233    -0.6003 C.2     
  15 O15           -1.2185    -0.7110    -0.0075 O.3     
  16 C16           -4.4425    -7.1373    -0.8104 C.ar    
  17 C17           -4.3366    -8.5121    -1.0272 C.ar    
  18 C18           -5.4750    -9.2669    -1.2222 C.ar    
  19 C19           -6.7200    -8.6644    -1.2032 C.ar    
  20 C20           -6.8329    -7.3009    -0.9886 C.ar    
  21 C21           -5.7018    -6.5354    -0.7869 C.ar    
  22 O22           -2.1319    -6.8509    -0.6163 O.2     
  23 Cl23          -8.3998    -6.5539    -0.9671 Cl      
  24 H24           -0.2000     0.2951     2.2165 H       
  25 H25            0.3882    -0.1409    -1.9992 H       
  26 H26            3.2174     1.9140     0.2356 H       
  27 H27            1.9415     1.5528     2.3091 H       
  28 H28            1.0036    -2.1471    -0.0520 H       
  29 H29            1.0742    -4.5973    -0.2295 H       
  30 H30           -3.2737    -2.3636    -0.1956 H       
  31 H31           -4.2075    -4.5867    -0.3050 H       
  32 H32           -3.3653    -8.9841    -1.0428 H       
  33 H33           -5.3938   -10.3306    -1.3904 H       
  34 H34           -7.6079    -9.2599    -1.3567 H       
  35 H35           -5.7906    -5.4721    -0.6196 H       
@<TRIPOS>BOND
   1    1    2 ar
   2    1    6 ar
   3    1   24 1
   4    2    3 ar
   5    2   15 1
   6    3    4 ar
   7    3   25 1
   8    4    5 ar
   9    5    6 ar
  10    5   26 1
  11    6   27 1
  12    7    8 ar
  13    7   12 ar
  14    7   15 1
  15    8    9 ar
  16    8   28 1
  17    9   10 ar
  18    9   29 1
  19   10   11 ar
  20   11   12 ar
  21   11   13 1
  22   12   30 1
  23   13   14 am
  24   13   31 1
  25   14   16 1
  26   14   22 2
  27   16   17 ar
  28   16   21 ar
  29   17   18 ar
  30   17   32 1
  31   18   19 ar
  32   18   33 1
  33   19   20 ar
  34   19   34 1
  35   20   21 ar
  36   20   23 1
  37   21   35 1

#	End of record

