#	Name: ASD01880319
#	Creating user name:	WinNT
#	Creation time:	15. 06. 2019 19:40

#	Modifying user name:	WinNT
#	Modification time:	15. 06. 2019 19:40

#	Program:	/corina/corina34_cracker 3.40 0067  02.08.2006

@<TRIPOS>MOLECULE
ASD01880319
  38   41    0    0    0
SMALL
NO_CHARGES


@<TRIPOS>ATOM
   1 C1            -0.0158     1.3166     0.0093 C.ar    
   2 N2             0.0021    -0.0041     0.0020 N.ar    
   3 C3            -1.1218    -0.7055     0.0094 C.ar    
   4 C4            -2.3611    -0.0158     0.0254 C.ar    
   5 C5            -2.3234     1.3812     0.0325 C.ar    
   6 N6            -1.1363     2.0007     0.0291 N.ar    
   7 C7            -3.7205    -0.5227     0.0357 C.2     
   8 C8            -4.6572     0.4056     0.0497 C.2     
   9 S9            -3.9623     2.0156     0.0517 S.3     
  10 C10            1.2933     2.0630     0.0008 C.3     
  11 N11           -1.0871    -2.0883     0.0012 N.3     
  12 C12            0.2995    -2.5810    -0.0157 C.3     
  13 C13            0.2908    -4.0670     0.3440 C.3     
  14 C14           -0.7152    -4.7968    -0.5085 C.ar    
  15 C15           -1.7030    -4.1256    -1.1965 C.ar    
  16 C16           -1.8304    -2.6257    -1.1428 C.3     
  17 C17           -0.6328    -6.1787    -0.5921 C.ar    
  18 C18           -1.5359    -6.8860    -1.3598 C.ar    
  19 C19           -2.5285    -6.2134    -2.0484 C.ar    
  20 C20           -2.6113    -4.8383    -1.9659 C.ar    
  21 C21           -6.1367     0.1192     0.0623 C.3     
  22 H22           -3.9477    -1.5785     0.0318 H       
  23 H23            1.5991     2.2485    -1.0289 H       
  24 H24            1.1731     3.0133     0.5209 H       
  25 H25            2.0546     1.4670     0.5042 H       
  26 H26            0.7235    -2.4476    -1.0109 H       
  27 H27            0.8925    -2.0308     0.7149 H       
  28 H28            1.2822    -4.4865     0.1730 H       
  29 H29            0.0267    -4.1834     1.3951 H       
  30 H30           -2.8824    -2.3567    -1.0474 H       
  31 H31           -1.4342    -2.1973    -2.0635 H       
  32 H32            0.1422    -6.7041    -0.0540 H       
  33 H33           -1.4672    -7.9620    -1.4228 H       
  34 H34           -3.2375    -6.7631    -2.6497 H       
  35 H35           -3.3871    -4.3138    -2.5040 H       
  36 H36           -6.4835     0.0446     1.0929 H       
  37 H37           -6.6674     0.9266    -0.4421 H       
  38 H38           -6.3292    -0.8209    -0.4548 H       
@<TRIPOS>BOND
   1    1    2 ar
   2    1   10 1
   3    1    6 ar
   4    2    3 ar
   5    3    4 ar
   6    3   11 1
   7    4    5 ar
   8    4    7 1
   9    5    6 ar
  10    5    9 1
  11    7    8 2
  12    7   22 1
  13    8    9 1
  14    8   21 1
  15   10   23 1
  16   10   24 1
  17   10   25 1
  18   11   12 1
  19   11   16 1
  20   12   13 1
  21   12   26 1
  22   12   27 1
  23   13   14 1
  24   13   28 1
  25   13   29 1
  26   14   15 ar
  27   14   17 ar
  28   15   16 1
  29   15   20 ar
  30   16   30 1
  31   16   31 1
  32   17   18 ar
  33   17   32 1
  34   18   19 ar
  35   18   33 1
  36   19   20 ar
  37   19   34 1
  38   20   35 1
  39   21   36 1
  40   21   37 1
  41   21   38 1

#	End of record

