#	Name: ASD03330103
#	Creating user name:	WinNT
#	Creation time:	15. 06. 2019 20:36

#	Modifying user name:	WinNT
#	Modification time:	15. 06. 2019 20:36

#	Program:	/corina/corina34_cracker 3.40 0067  02.08.2006

@<TRIPOS>MOLECULE
ASD03330103
  32   32    0    0    0
SMALL
NO_CHARGES


@<TRIPOS>ATOM
   1 N1             0.2523     1.4854     0.2821 N.3     
   2 C2             0.1503     0.0212     0.2367 C.3     
   3 C3             0.6929    -0.4881    -1.1005 C.3     
   4 C4             2.1537    -0.0546    -1.2514 C.3     
   5 C5             2.2380     1.4711    -1.1522 C.3     
   6 C6             1.6506     1.9235     0.1866 C.3     
   7 C7             2.9795    -0.6770    -0.1552 C.2     
   8 O8             3.2502    -0.0362     0.8383 O.2     
   9 N9             3.4173    -1.9456    -0.2789 N.am    
  10 N10            2.6626    -0.4903    -2.5588 N.3     
  11 C11            4.0617    -0.0820    -2.7418 C.3     
  12 C12            4.5434    -0.5185    -4.1269 C.3     
  13 C13            6.0007    -0.0932    -4.3175 C.3     
  14 F14            6.7947    -0.6963    -3.3362 F       
  15 F15            6.4411    -0.4924    -5.5840 F       
  16 F16            6.0987     1.2980    -4.2068 F       
  17 H17           -0.3097     1.9096    -0.4406 H       
  18 H18            0.7320    -0.4088     1.0521 H       
  19 H19           -0.8939    -0.2736     0.3409 H       
  20 H20            0.6315    -1.5760    -1.1276 H       
  21 H21            0.1030    -0.0693    -1.9158 H       
  22 H22            3.2805     1.7829    -1.2161 H       
  23 H23            1.6724     1.9206    -1.9683 H       
  24 H24            1.6960     3.0105     0.2544 H       
  25 H25            2.2252     1.4846     1.0022 H       
  26 H26            3.1424    -2.4816    -1.0392 H       
  27 H27            4.0073    -2.3227     0.3923 H       
  28 H28            2.5590    -1.4875    -2.6730 H       
  29 H29            4.1381     1.0019    -2.6555 H       
  30 H30            4.6804    -0.5518    -1.9772 H       
  31 H31            4.4670    -1.6024    -4.2131 H       
  32 H32            3.9247    -0.0487    -4.8915 H       
@<TRIPOS>BOND
   1    1    2 1
   2    1    6 1
   3    1   17 1
   4    2    3 1
   5    2   18 1
   6    2   19 1
   7    3    4 1
   8    3   20 1
   9    3   21 1
  10    4    5 1
  11    4    7 1
  12    4   10 1
  13    5    6 1
  14    5   22 1
  15    5   23 1
  16    6   24 1
  17    6   25 1
  18    7    8 2
  19    7    9 am
  20    9   26 1
  21    9   27 1
  22   10   11 1
  23   10   28 1
  24   11   12 1
  25   11   29 1
  26   11   30 1
  27   12   13 1
  28   12   31 1
  29   12   32 1
  30   13   14 1
  31   13   15 1
  32   13   16 1

#	End of record

