#	Name: ASD03330839
#	Creating user name:	WinNT
#	Creation time:	15. 06. 2019 20:38

#	Modifying user name:	WinNT
#	Modification time:	15. 06. 2019 20:38

#	Program:	/corina/corina34_cracker 3.40 0067  02.08.2006

@<TRIPOS>MOLECULE
ASD03330839
  59   61    0    0    0
SMALL
NO_CHARGES


@<TRIPOS>ATOM
   1 C1            -0.5268     1.7995    -0.6079 C.2     
   2 N2            -0.6525     0.4665    -0.8437 N.pl3   
   3 C3             0.8059     2.0675    -0.5252 C.2     
   4 N4             1.4725     0.9097    -0.7267 N.2     
   5 C5             0.6053    -0.0555    -0.9244 C.2     
   6 C6             0.9364    -1.4721    -1.1908 C.ar    
   7 C7             0.3018    -2.4965    -0.4808 C.ar    
   8 C8             1.4124     3.3846    -0.2632 C.2     
   9 O9             0.7031     4.3586    -0.0977 O.2     
  10 C10            3.3561     4.8195     0.0535 C.3     
  11 N11            2.7531     3.5100    -0.2070 N.am    
  12 C12            0.6473    -3.8059    -0.7675 C.ar    
  13 C13            1.5997    -4.0590    -1.7374 C.ar    
  14 N14            2.1836    -3.0740    -2.3929 N.ar    
  15 C15            1.8849    -1.8103    -2.1605 C.ar    
  16 C16           -1.9200    -0.2584    -0.9697 C.3     
  17 C17           -2.8507     0.5165    -1.9078 C.3     
  18 C18           -3.6482     1.5435    -1.1104 C.3     
  19 N19           -2.8580     2.0771     0.0007 N.3     
  20 C20           -1.6622     2.7823    -0.4841 C.3     
  21 C21           -3.6737     2.9501     0.8553 C.3     
  22 C22            3.4171     5.0618     1.5629 C.3     
  23 C23            4.2199     3.9415     2.2272 C.3     
  24 C24            4.0943     6.4061     1.8368 C.3     
  25 C25            1.9979     5.0799     2.1343 C.3     
  26 C26            4.7504     4.8530    -0.5174 C.2     
  27 O27            5.3314     3.8164    -0.7599 O.2     
  28 N28            5.3517     6.0349    -0.7584 N.am    
  29 C29            6.6660     6.0698    -1.4046 C.3     
  30 F30            2.5090    -0.8350    -2.8566 F       
  31 H31           -0.4388    -2.2715     0.2724 H       
  32 H32            2.7528     5.5970    -0.4152 H       
  33 H33            3.3188     2.7332    -0.3390 H       
  34 H34            0.1776    -4.6220    -0.2385 H       
  35 H35            1.8705    -5.0802    -1.9620 H       
  36 H36           -1.7329    -1.2507    -1.3801 H       
  37 H37           -2.3860    -0.3506     0.0113 H       
  38 H38           -2.2575     1.0276    -2.6661 H       
  39 H39           -3.5366    -0.1780    -2.3928 H       
  40 H40           -3.9369     2.3622    -1.7696 H       
  41 H41           -4.5469     1.0699    -0.7152 H       
  42 H42           -1.3900     3.5665     0.2224 H       
  43 H43           -1.8697     3.2241    -1.4587 H       
  44 H44           -4.5099     2.3817     1.2624 H       
  45 H45           -3.0623     3.3328     1.6726 H       
  46 H46           -4.0542     3.7837     0.2651 H       
  47 H47            5.2310     3.9286     1.8202 H       
  48 H48            4.2634     4.1141     3.3026 H       
  49 H49            3.7374     2.9838     2.0322 H       
  50 H50            3.5061     7.2072     1.3892 H       
  51 H51            4.1650     6.5648     2.9128 H       
  52 H52            5.0945     6.4040     1.4034 H       
  53 H53            1.5153     4.1222     1.9392 H       
  54 H54            2.0413     5.2525     3.2096 H       
  55 H55            1.4259     5.8780     1.6610 H       
  56 H56            4.9142     6.8624    -0.5040 H       
  57 H57            6.6003     5.6026    -2.3872 H       
  58 H58            6.9891     7.1049    -1.5153 H       
  59 H59            7.3865     5.5278    -0.7920 H       
@<TRIPOS>BOND
   1    1    2 1
   2    1    3 2
   3    1   20 1
   4    2   16 1
   5    2    5 1
   6    3    4 1
   7    3    8 1
   8    4    5 2
   9    5    6 1
  10    6    7 ar
  11    6   15 ar
  12    7   12 ar
  13    7   31 1
  14    8    9 2
  15    8   11 am
  16   10   11 1
  17   10   22 1
  18   10   26 1
  19   10   32 1
  20   11   33 1
  21   12   13 ar
  22   12   34 1
  23   13   14 ar
  24   13   35 1
  25   14   15 ar
  26   15   30 1
  27   16   17 1
  28   16   36 1
  29   16   37 1
  30   17   18 1
  31   17   38 1
  32   17   39 1
  33   18   19 1
  34   18   40 1
  35   18   41 1
  36   19   20 1
  37   19   21 1
  38   20   42 1
  39   20   43 1
  40   21   44 1
  41   21   45 1
  42   21   46 1
  43   22   23 1
  44   22   24 1
  45   22   25 1
  46   23   47 1
  47   23   48 1
  48   23   49 1
  49   24   50 1
  50   24   51 1
  51   24   52 1
  52   25   53 1
  53   25   54 1
  54   25   55 1
  55   26   27 2
  56   26   28 am
  57   28   29 1
  58   28   56 1
  59   29   57 1
  60   29   58 1
  61   29   59 1

#	End of record

