#	Name: ASD03430114
#	Creating user name:	WinNT
#	Creation time:	15. 06. 2019 20:40

#	Modifying user name:	WinNT
#	Modification time:	15. 06. 2019 20:40

#	Program:	/corina/corina34_cracker 3.40 0067  02.08.2006

@<TRIPOS>MOLECULE
ASD03430114
  55   60    0    0    0
SMALL
NO_CHARGES


@<TRIPOS>ATOM
   1 C1             0.0515     1.3738    -0.0628 C.ar    
   2 C2             0.0477    -0.0124    -0.0451 C.ar    
   3 C3             1.2370    -0.7100    -0.0407 C.ar    
   4 C4             2.4541    -0.0350    -0.0438 C.ar    
   5 C5             2.4543     1.3559    -0.0663 C.ar    
   6 C6             1.2611     2.0586    -0.0743 C.ar    
   7 O7             3.5025    -0.9066    -0.0089 O.3     
   8 C8             1.5615    -2.1797    -0.0452 C.3     
   9 C9             3.0500    -2.2111    -0.4190 C.3     
  10 C10            0.4048    -3.8583     1.0331 C.ar    
  11 C11            1.3040    -2.8261     1.2833 C.ar    
  12 C12            0.7244    -2.9457    -1.0291 C.2     
  13 N13            0.0863    -3.9028    -0.3265 N.am    
  14 O14            0.6395    -2.7431    -2.2219 O.2     
  15 C15            1.7620    -2.5887     2.5665 C.ar    
  16 C16            1.3239    -3.3863     3.6179 C.ar    
  17 C17            0.4324    -4.4130     3.3744 C.ar    
  18 C18           -0.0257    -4.6511     2.0945 C.ar    
  19 N19            2.6650    -1.5482     2.8063 N.am    
  20 O20           -1.1320     2.0468    -0.0742 O.3     
  21 C21           -1.0872     3.4331     0.2811 C.3     
  22 C22            0.0804     4.0839    -0.4727 C.3     
  23 O23            1.2887     3.4198    -0.0895 O.3     
  24 C24           -0.8344    -4.8759    -0.9193 C.3     
  25 C25            3.4954    -1.6073     3.8662 C.2     
  26 O26            3.4108    -2.5294     4.6539 O.2     
  27 C27            4.5090    -0.5511     4.0708 C.ar    
  28 C28            5.3705    -0.6094     5.1674 C.ar    
  29 C29            6.3147     0.3796     5.3523 C.ar    
  30 C30            6.4086     1.4272     4.4537 C.ar    
  31 C31            5.5573     1.4912     3.3646 C.ar    
  32 C32            4.6127     0.5061     3.1649 C.ar    
  33 C33            5.2693    -1.7496     6.1476 C.3     
  34 F34            6.2300    -1.5881     7.1516 F       
  35 F35            3.9931    -1.7600     6.7206 F       
  36 F36            5.4907    -2.9591     5.4804 F       
  37 H37           -0.8902    -0.5478    -0.0344 H       
  38 H38            3.3919     1.8917    -0.0769 H       
  39 H39            3.1766    -2.3447    -1.4933 H       
  40 H40            3.5713    -2.9929     0.1334 H       
  41 H41            1.6796    -3.2040     4.6212 H       
  42 H42            0.0921    -5.0332     4.1904 H       
  43 H43           -0.7225    -5.4565     1.9149 H       
  44 H44            2.6938    -0.7838     2.2097 H       
  45 H45           -2.0225     3.9157    -0.0023 H       
  46 H46           -0.9323     3.5324     1.3555 H       
  47 H47           -0.0709     3.9779    -1.5469 H       
  48 H48            0.1427     5.1405    -0.2123 H       
  49 H49           -1.8475    -4.4741    -0.9035 H       
  50 H50           -0.5386    -5.0753    -1.9493 H       
  51 H51           -0.8021    -5.8026    -0.3462 H       
  52 H52            6.9817     0.3359     6.2006 H       
  53 H53            7.1495     2.1987     4.6030 H       
  54 H54            5.6354     2.3121     2.6672 H       
  55 H55            3.9491     0.5570     2.3144 H       
@<TRIPOS>BOND
   1    1    2 ar
   2    1    6 ar
   3    1   20 1
   4    2    3 ar
   5    2   37 1
   6    3    4 ar
   7    3    8 1
   8    4    5 ar
   9    4    7 1
  10    5    6 ar
  11    5   38 1
  12    6   23 1
  13    7    9 1
  14    8    9 1
  15    8   11 1
  16    8   12 1
  17    9   39 1
  18    9   40 1
  19   10   11 ar
  20   10   13 1
  21   10   18 ar
  22   11   15 ar
  23   12   13 am
  24   12   14 2
  25   13   24 1
  26   15   16 ar
  27   15   19 1
  28   16   17 ar
  29   16   41 1
  30   17   18 ar
  31   17   42 1
  32   18   43 1
  33   19   25 am
  34   19   44 1
  35   20   21 1
  36   21   22 1
  37   21   45 1
  38   21   46 1
  39   22   23 1
  40   22   47 1
  41   22   48 1
  42   24   49 1
  43   24   50 1
  44   24   51 1
  45   25   26 2
  46   25   27 1
  47   27   28 ar
  48   27   32 ar
  49   28   29 ar
  50   28   33 1
  51   29   30 ar
  52   29   52 1
  53   30   31 ar
  54   30   53 1
  55   31   32 ar
  56   31   54 1
  57   32   55 1
  58   33   34 1
  59   33   35 1
  60   33   36 1

#	End of record

