#	Name: ASD05490213
#	Creating user name:	WinNT
#	Creation time:	15. 06. 2019 21:01

#	Modifying user name:	WinNT
#	Modification time:	15. 06. 2019 21:01

#	Program:	/corina/corina34_cracker 3.40 0067  02.08.2006

@<TRIPOS>MOLECULE
ASD05490213
  68   72    0    0    0
SMALL
NO_CHARGES


@<TRIPOS>ATOM
   1 N1            -0.0159     1.3208     0.0093 N.ar    
   2 C2             0.0021    -0.0041     0.0020 C.ar    
   3 C3             1.1987    -0.7015    -0.0132 C.ar    
   4 C4             2.3925     0.0113    -0.0207 C.ar    
   5 C5             2.3390     1.4074    -0.0127 C.ar    
   6 C6             1.0996     2.0376     0.0025 C.ar    
   7 O7            -1.1704    -0.6885     0.0100 O.3     
   8 N8             1.0295     3.4275     0.0106 N.pl3   
   9 C9            -2.3725     0.0841     0.0261 C.3     
  10 C10           -3.5813    -0.8537     0.0331 C.3     
  11 C11           -4.8684    -0.0265     0.0503 C.3     
  12 N12            3.7329    -0.3423    -0.0354 N.am    
  13 C13            4.4718     0.7840    -0.0364 C.2     
  14 N14            3.6596     1.8589    -0.0229 N.am    
  15 O15            5.6880     0.8245    -0.0472 O.2     
  16 C16            4.2573    -1.7101    -0.0478 C.3     
  17 C17            4.4235    -2.1715    -1.4727 C.ar    
  18 C18            5.6194    -1.9531    -2.1327 C.ar    
  19 C19            3.3817    -2.8170    -2.1140 C.ar    
  20 C20            3.5286    -3.2421    -3.4189 C.ar    
  21 C21            4.7292    -3.0200    -4.0902 C.ar    
  22 C22            5.7773    -2.3740    -3.4376 C.ar    
  23 C23           -6.0773    -0.9643     0.0573 C.3     
  24 C24            4.8933    -3.4752    -5.4930 C.ar    
  25 C25            6.0939    -3.2531    -6.1643 C.ar    
  26 C26            3.8493    -4.1314    -6.1418 C.ar    
  27 C27            4.0073    -4.5526    -7.4466 C.ar    
  28 C28            5.1994    -4.3249    -8.1100 C.ar    
  29 C29            6.2410    -3.6786    -7.4690 C.ar    
  30 C30            5.3664    -4.7880    -9.5343 C.3     
  31 N31            4.9366    -3.7222   -10.4493 N.3     
  32 C32            5.3038    -4.0409   -11.8413 C.3     
  33 C33            3.4729    -3.5245   -10.3821 C.3     
  34 C34            3.0610    -3.1263   -11.8214 C.3     
  35 C35            4.0051    -4.0140   -12.6744 C.3     
  36 H36            1.2044    -1.7815    -0.0187 H       
  37 H37            1.8441     3.9542     0.0057 H       
  38 H38            0.1662     3.8696     0.0213 H       
  39 H39           -2.3914     0.7080     0.9197 H       
  40 H40           -2.4091     0.7175    -0.8602 H       
  41 H41           -3.5624    -1.4776    -0.8605 H       
  42 H42           -3.5447    -1.4872     0.9193 H       
  43 H43           -4.8874     0.5974     0.9439 H       
  44 H44           -4.9050     0.6069    -0.8360 H       
  45 H45            3.9436     2.7863    -0.0206 H       
  46 H46            5.2232    -1.7335     0.4567 H       
  47 H47            3.5613    -2.3708     0.4692 H       
  48 H48            6.4309    -1.4520    -1.6260 H       
  49 H49            2.4516    -2.9889    -1.5926 H       
  50 H50            2.7146    -3.7462    -3.9185 H       
  51 H51            6.7098    -2.1990    -3.9534 H       
  52 H52           -6.0583    -1.5882    -0.8363 H       
  53 H53           -6.0406    -1.5978     0.9435 H       
  54 H54           -6.9942    -0.3750     0.0695 H       
  55 H55            6.9077    -2.7486    -5.6648 H       
  56 H56            2.9182    -4.3104    -5.6245 H       
  57 H57            3.1987    -5.0613    -7.9504 H       
  58 H58            7.1696    -3.5030    -7.9918 H       
  59 H59            6.4142    -5.0248    -9.7189 H       
  60 H60            4.7582    -5.6771    -9.7009 H       
  61 H61            6.0030    -3.2955   -12.2202 H       
  62 H62            5.7541    -5.0325   -11.8883 H       
  63 H63            2.9781    -4.4501   -10.0881 H       
  64 H64            3.2298    -2.7245    -9.6828 H       
  65 H65            2.0164    -3.3730   -12.0109 H       
  66 H66            3.2500    -2.0683   -12.0030 H       
  67 H67            4.1824    -3.5614   -13.6500 H       
  68 H68            3.5960    -5.0184   -12.7829 H       
@<TRIPOS>BOND
   1    1    2 ar
   2    1    6 ar
   3    2    3 ar
   4    2    7 1
   5    3    4 ar
   6    3   36 1
   7    4    5 ar
   8    4   12 1
   9    5    6 ar
  10    5   14 1
  11    6    8 1
  12    7    9 1
  13    8   37 1
  14    8   38 1
  15    9   10 1
  16    9   39 1
  17    9   40 1
  18   10   11 1
  19   10   41 1
  20   10   42 1
  21   11   23 1
  22   11   43 1
  23   11   44 1
  24   12   13 am
  25   12   16 1
  26   13   14 am
  27   13   15 2
  28   14   45 1
  29   16   17 1
  30   16   46 1
  31   16   47 1
  32   17   18 ar
  33   17   19 ar
  34   18   22 ar
  35   18   48 1
  36   19   20 ar
  37   19   49 1
  38   20   21 ar
  39   20   50 1
  40   21   22 ar
  41   21   24 1
  42   22   51 1
  43   23   52 1
  44   23   53 1
  45   23   54 1
  46   24   25 ar
  47   24   26 ar
  48   25   29 ar
  49   25   55 1
  50   26   27 ar
  51   26   56 1
  52   27   28 ar
  53   27   57 1
  54   28   29 ar
  55   28   30 1
  56   29   58 1
  57   30   31 1
  58   30   59 1
  59   30   60 1
  60   31   32 1
  61   31   33 1
  62   32   35 1
  63   32   61 1
  64   32   62 1
  65   33   34 1
  66   33   63 1
  67   33   64 1
  68   34   35 1
  69   34   65 1
  70   34   66 1
  71   35   67 1
  72   35   68 1

#	End of record

