#	Name: ASD01903294
#	Creating user name:	WinNT
#	Creation time:	15. 06. 2019 19:54

#	Modifying user name:	WinNT
#	Modification time:	15. 06. 2019 19:54

#	Program:	/corina/corina34_cracker 3.40 0067  02.08.2006

@<TRIPOS>MOLECULE
ASD01903294
  42   45    0    0    0
SMALL
NO_CHARGES


@<TRIPOS>ATOM
   1 C1             0.0877     1.2408     0.2366 C.ar    
   2 C2            -0.7617     1.0410    -0.8396 C.ar    
   3 C3            -0.4855     1.6622    -2.0478 C.ar    
   4 C4             0.6393     2.4669    -2.1355 C.ar    
   5 C5             1.4491     2.6227    -1.0124 C.ar    
   6 N6             1.1489     2.0099     0.1260 N.ar    
   7 C7             2.6553     3.4790    -1.0898 C.2     
   8 O8             2.9351     4.0422    -2.1298 O.2     
   9 N9             3.4425     3.6337    -0.0068 N.am    
  10 C10            4.6327     4.3630    -0.1053 C.ar    
  11 C11            4.6979     5.4778    -0.9315 C.ar    
  12 C12            5.8718     6.1973    -1.0281 C.ar    
  13 C13            6.9875     5.8069    -0.2995 C.ar    
  14 C14            6.9226     4.6926     0.5264 C.ar    
  15 C15            5.7474     3.9758     0.6275 C.ar    
  16 N16            8.1819     6.5347    -0.4023 N.am    
  17 C17            9.0800     6.1600    -1.3239 C.2     
  18 C18           10.3618     6.8646    -1.5036 C.ar    
  19 C19           10.6650     7.9631    -0.6931 C.ar    
  20 C20            9.6485     8.3813     0.3431 C.3     
  21 C21            8.3685     7.5780     0.4244 C.2     
  22 O22            8.8291     5.2070    -2.0349 O.2     
  23 O23            7.5179     7.8695     1.2377 O.2     
  24 C24           11.2790     6.4523    -2.4705 C.ar    
  25 C25           12.4712     7.1321    -2.6146 C.ar    
  26 C26           12.7607     8.2179    -1.8069 C.ar    
  27 C27           11.8544     8.6337    -0.8445 C.ar    
  28 H28           -0.1269     0.7620     1.1806 H       
  29 H29           -1.6302     0.4072    -0.7384 H       
  30 H30           -1.1321     1.5219    -2.9015 H       
  31 H31            0.8850     2.9658    -3.0613 H       
  32 H32            3.1841     3.2394     0.8410 H       
  33 H33            3.8302     5.7813    -1.4985 H       
  34 H34            5.9227     7.0638    -1.6707 H       
  35 H35            7.7907     4.3889     1.0928 H       
  36 H36            5.6968     3.1093     1.2702 H       
  37 H37           10.1316     8.3451     1.3194 H       
  38 H38            9.3777     9.4187     0.1465 H       
  39 H39           11.0573     5.6052    -3.1028 H       
  40 H40           13.1831     6.8146    -3.3622 H       
  41 H41           13.6966     8.7433    -1.9270 H       
  42 H42           12.0825     9.4816    -0.2156 H       
@<TRIPOS>BOND
   1    1    2 ar
   2    1    6 ar
   3    1   28 1
   4    2    3 ar
   5    2   29 1
   6    3    4 ar
   7    3   30 1
   8    4    5 ar
   9    4   31 1
  10    5    6 ar
  11    5    7 1
  12    7    8 2
  13    7    9 am
  14    9   10 1
  15    9   32 1
  16   10   11 ar
  17   10   15 ar
  18   11   12 ar
  19   11   33 1
  20   12   13 ar
  21   12   34 1
  22   13   14 ar
  23   13   16 1
  24   14   15 ar
  25   14   35 1
  26   15   36 1
  27   16   17 am
  28   16   21 am
  29   17   18 1
  30   17   22 2
  31   18   19 ar
  32   18   24 ar
  33   19   20 1
  34   19   27 ar
  35   20   21 1
  36   20   37 1
  37   20   38 1
  38   21   23 2
  39   24   25 ar
  40   24   39 1
  41   25   26 ar
  42   25   40 1
  43   26   27 ar
  44   26   41 1
  45   27   42 1

#	End of record

