#	Name: ASD06590019
#	Creating user name:	WinNT
#	Creation time:	15. 06. 2019 21:06

#	Modifying user name:	WinNT
#	Modification time:	15. 06. 2019 21:06

#	Program:	/corina/corina34_cracker 3.40 0067  02.08.2006

@<TRIPOS>MOLECULE
ASD06590019
 387  387    0    0    0
SMALL
NO_CHARGES


@<TRIPOS>ATOM
   1 C1            -3.2671   -14.4970    -3.7474 C.2     
   2 O2            -3.7458   -13.9753    -4.7321 O.2     
   3 N3            -1.1004   -14.2186    -4.8117 N.3     
   4 C4            -1.7757   -14.4746    -3.5325 C.3     
   5 C5            -1.4203   -13.3678    -2.5377 C.3     
   6 C6             0.0761   -13.4252    -2.2241 C.3     
   7 C7             0.4315   -12.3184    -1.2293 C.3     
   8 N8             1.8644   -12.3733    -0.9290 N.pl3   
   9 C9             2.4182   -11.4701    -0.0536 C.2     
  10 N10            1.6934   -10.5014     0.4273 N.2     
  11 N11            3.7439   -11.5901     0.3161 N.am    
  12 C12           -6.2146   -15.2429    -1.7179 C.2     
  13 O13           -5.5624   -15.3178    -0.6981 O.2     
  14 N14           -4.0695   -15.0918    -2.8425 N.am    
  15 C15           -5.5199   -15.1083    -3.0484 C.3     
  16 C16           -5.8948   -16.2925    -3.9416 C.3     
  17 C17           -5.2907   -16.0931    -5.3331 C.3     
  18 C18           -5.6599   -17.2595    -6.2129 C.2     
  19 O19           -6.3368   -18.1581    -5.7723 O.2     
  20 O20           -5.2369   -17.3002    -7.4862 O.3     
  21 C21           -9.5956   -16.0286    -0.5712 C.2     
  22 O22           -9.9641   -16.3297    -1.6867 O.2     
  23 N23           -7.5606   -15.2802    -1.6612 N.am    
  24 C24           -8.2360   -15.4111    -0.3678 C.3     
  25 C25           -8.3939   -14.0282     0.2674 C.3     
  26 C26           -7.0254   -13.3501     0.3596 C.3     
  27 O27           -9.2670   -13.2318    -0.5360 O.3     
  28 C28          -12.7494   -15.9494    -0.0525 C.2     
  29 O29          -12.4764   -14.7714    -0.1456 O.2     
  30 N30          -10.4019   -16.2463     0.4866 N.am    
  31 C31          -11.6763   -16.9455     0.3045 C.3     
  32 C32          -12.0558   -17.6606     1.6028 C.3     
  33 C33          -11.0754   -18.7739     1.8681 C.2     
  34 O34          -10.1190   -18.9265     1.1381 O.2     
  35 N35          -11.2614   -19.5999     2.9167 N.am    
  36 C36          -16.4014   -15.9452    -0.2135 C.2     
  37 O37          -16.4814   -17.0358     0.3110 O.2     
  38 N38          -14.0123   -16.3676    -0.2682 N.am    
  39 C39          -15.0554   -15.3993    -0.6152 C.3     
  40 C40          -15.0366   -15.1483    -2.1244 C.3     
  41 C41          -19.8976   -14.7561    -0.4035 C.2     
  42 O42          -19.5988   -13.7062    -0.9321 O.2     
  43 N43          -17.5162   -15.2215    -0.4371 N.am    
  44 C44          -18.8246   -15.7522    -0.0465 C.3     
  45 C45          -23.4282   -14.2716     0.4109 C.2     
  46 O46          -23.4108   -15.1430     1.2543 O.2     
  47 N47          -21.1893   -15.0319    -0.1353 N.am    
  48 C48          -22.2324   -14.0635    -0.4823 C.3     
  49 C49          -22.6459   -14.2605    -1.9422 C.3     
  50 C50          -21.4648   -13.9280    -2.8561 C.3     
  51 C51          -21.8782   -14.1249    -4.3159 C.3     
  52 N52          -20.7473   -13.8066    -5.1910 N.pl3   
  53 C53          -20.8828   -13.9112    -6.5551 C.2     
  54 N54          -22.0176   -14.2937    -7.0698 N.2     
  55 N55          -19.8215   -13.6125    -7.3763 N.pl3   
  56 C56          -26.9179   -13.1838     0.4486 C.2     
  57 O57          -26.8375   -12.7005    -0.6609 O.2     
  58 N58          -24.5170   -13.4893     0.2725 N.am    
  59 C59          -25.6794   -13.6916     1.1408 C.3     
  60 C60          -25.4771   -12.9266     2.4503 C.3     
  61 O61          -25.4452   -11.5233     2.1821 O.3     
  62 C62          -29.3552   -11.2033     0.7569 C.2     
  63 O63          -28.4887   -10.6981     1.4387 O.2     
  64 N64          -28.1150   -13.2667     1.0624 N.am    
  65 C65          -29.3009   -12.6751     0.4379 C.3     
  66 C66          -30.5574   -13.3608     0.9782 C.3     
  67 C67          -30.5779   -14.7988     0.5281 C.2     
  68 O68          -29.7361   -15.2041    -0.2380 O.2     
  69 O69          -31.5314   -15.6295     0.9783 O.3     
  70 C70          -31.8465    -8.5389     0.5167 C.2     
  71 O71          -32.7144    -9.2830     0.1118 O.2     
  72 N72          -30.3668   -10.4483     0.2845 N.am    
  73 C73          -30.4196    -9.0174     0.5946 C.3     
  74 C74          -29.5669    -8.2452    -0.4141 C.3     
  75 C75          -28.1235    -8.7489    -0.3530 C.3     
  76 O76          -30.0864    -8.4465    -1.7300 O.3     
  77 C77          -33.6222    -5.3532     0.7641 C.2     
  78 O78          -32.6000    -4.7107     0.6491 O.2     
  79 N79          -32.1581    -7.2840     0.8968 N.am    
  80 C80          -33.5575    -6.8510     0.9173 C.3     
  81 C81          -34.1972    -7.2557     2.2469 C.3     
  82 C82          -34.2442    -8.7817     2.3467 C.3     
  83 C83          -34.8839    -9.1865     3.6763 C.3     
  84 N84          -34.9289   -10.6477     3.7718 N.pl3   
  85 C85          -35.4650   -11.2475     4.8866 C.2     
  86 N86          -35.9333   -10.5161     5.8586 N.2     
  87 N87          -35.5072   -12.6187     4.9763 N.pl3   
  88 C88          -36.1576    -2.7589     1.2167 C.2     
  89 O89          -36.9394    -3.5335     1.7263 O.2     
  90 N90          -34.8160    -4.7277     0.7548 N.am    
  91 C91          -34.8789    -3.2716     0.6058 C.3     
  92 C92          -34.8423    -2.9089    -0.8801 C.3     
  93 C93          -33.4921    -3.3184    -1.4719 C.3     
  94 C94          -33.4560    -2.9612    -2.9355 C.2     
  95 O95          -34.4158    -2.4312    -3.4542 O.2     
  96 N96          -32.3573    -3.2306    -3.6681 N.am    
  97 C97          -38.0526     0.3662     1.1430 C.2     
  98 O98          -37.3520     0.8355     0.2712 O.2     
  99 N99          -36.4324    -1.4396     1.1967 N.am    
 100 C100         -37.6754    -0.9412     1.7905 C.3     
 101 C101         -37.4733    -0.7271     3.2920 C.3     
 102 C102         -37.2132    -2.0744     3.9688 C.3     
 103 C103         -37.0141    -1.8635     5.4476 C.2     
 104 O104         -37.0745    -0.7457     5.9143 O.2     
 105 N105         -36.7691    -2.9170     6.2516 N.am    
 106 C106         -40.3886     3.0873     1.8510 C.2     
 107 O107         -40.6636     2.6414     2.9448 O.2     
 108 N108         -39.1684     1.0140     1.5325 N.am    
 109 C109         -39.5351     2.2850     0.9030 C.3     
 110 C110         -40.3195     2.0103    -0.3816 C.3     
 111 C111         -39.4263     1.3155    -1.3768 C.ar    
 112 C112         -39.3585    -0.0653    -1.3969 C.ar    
 113 C113         -38.5401    -0.7046    -2.3079 C.ar    
 114 C114         -37.7863     0.0401    -3.2034 C.ar    
 115 O115         -36.9808    -0.5865    -4.1009 O.3     
 116 C116         -37.8565     1.4254    -3.1815 C.ar    
 117 C117         -38.6804     2.0598    -2.2719 C.ar    
 118 C118         -42.5380     6.0351     1.6195 C.2     
 119 O119         -42.4662     6.0614     0.4091 O.2     
 120 N120         -40.8465     4.3005     1.4833 N.am    
 121 C121         -41.6762     5.0804     2.4049 C.3     
 122 C122         -40.7763     5.8709     3.3569 C.3     
 123 C123         -39.9920     4.8997     4.2416 C.3     
 124 C124         -39.0921     5.6902     5.1935 C.3     
 125 N125         -38.3412     4.7603     6.0406 N.pl3   
 126 C126         -37.4618     5.2436     6.9804 C.2     
 127 N127         -37.2963     6.5292     7.1178 N.2     
 128 N128         -36.7570     4.3710     7.7754 N.pl3   
 129 C129         -44.5964     8.9619     2.3679 C.2     
 130 O130         -44.1994     9.0179     3.5125 O.2     
 131 N131         -43.3886     6.8597     2.2622 N.am    
 132 C132         -44.2264     7.7878     1.4986 C.3     
 133 C133         -45.4983     7.0698     1.0429 C.3     
 134 C134         -45.1309     5.9551     0.0614 C.3     
 135 C135         -46.4028     5.2371    -0.3943 C.3     
 136 C136         -46.0353     4.1225    -1.3758 C.3     
 137 N137         -47.2565     3.4331    -1.8133 N.3     
 138 C138         -47.0609    11.6635     2.1703 C.2     
 139 O139         -47.3156    11.5306     0.9920 O.2     
 140 N140         -45.3685     9.9497     1.8734 N.am    
 141 C141         -45.8191    11.0350     2.7483 C.3     
 142 C142         -44.7175    12.0910     2.8597 C.3     
 143 C143         -45.1134    13.1322     3.9085 C.3     
 144 C144         -45.1313    12.4804     5.2927 C.3     
 145 C145         -44.0996    14.2781     3.8975 C.3     
 146 C146         -49.5813    14.0919     3.2253 C.2     
 147 O147         -48.8984    14.4836     4.1479 O.2     
 148 N148         -47.8883    12.3732     2.9628 N.am    
 149 C149         -49.1524    12.8865     2.4290 C.3     
 150 C150         -50.2261    11.8011     2.5284 C.3     
 151 C151         -49.8506    10.6276     1.6214 C.3     
 152 C152         -50.8571     9.4915     1.8142 C.3     
 153 C153         -49.8709    11.0846     0.1614 C.3     
 154 C154         -52.6363    16.0662     3.5896 C.2     
 155 O155         -53.2894    15.2787     2.9382 O.2     
 156 N156         -50.7239    14.7346     2.9123 N.am    
 157 C157         -51.1409    15.9064     3.6864 C.3     
 158 C158         -50.4573    17.1561     3.1280 C.3     
 159 C159         -48.9458    17.0482     3.3396 C.3     
 160 C160         -48.2622    18.2979     2.7813 C.3     
 161 C161         -46.7507    18.1900     2.9928 C.3     
 162 N162         -46.0944    19.3900     2.4567 N.3     
 163 C163         -55.0449    18.0068     2.8823 C.2     
 164 O164         -54.1655    18.3852     2.1451 O.2     
 165 N165         -53.2479    17.0841     4.2270 N.am    
 166 C166         -54.7016    17.2394     4.1330 C.3     
 167 C167         -55.2131    18.0027     5.3563 C.3     
 168 O168         -54.6891    19.3321     5.3416 O.3     
 169 O169         -56.3276    18.2700     2.5872 O.3     
 170 C170           4.4668   -12.6483    -0.1012 C.2     
 171 O171           3.9804   -13.4492    -0.8708 O.2     
 172 C172          20.0544   -23.0442    -0.4756 C.3     
 173 C173          18.6201   -22.8535    -0.9729 C.3     
 174 C174          18.0294   -21.5859    -0.3521 C.3     
 175 C175          16.5951   -21.3952    -0.8494 C.3     
 176 C176          16.0044   -20.1276    -0.2287 C.3     
 177 C177          14.5701   -19.9369    -0.7260 C.3     
 178 C178          13.9794   -18.6693    -0.1052 C.3     
 179 C179          12.5451   -18.4786    -0.6025 C.3     
 180 C180          11.9544   -17.2110     0.0182 C.3     
 181 C181          10.5201   -17.0203    -0.4791 C.3     
 182 C182           9.9295   -15.7528     0.1417 C.3     
 183 C183           8.4952   -15.5620    -0.3556 C.3     
 184 C184           7.9045   -14.2945     0.2651 C.3     
 185 C185           6.4702   -14.1037    -0.2322 C.3     
 186 C186           5.8795   -12.8362     0.3886 C.3     
 187 H187          -1.3848   -13.3315    -5.1995 H       
 188 H188          -0.0979   -14.2626    -4.7066 H       
 189 H189          -1.4512   -15.4369    -3.1366 H       
 190 H190          -1.6637   -12.3978    -2.9712 H       
 191 H191          -1.9897   -13.5085    -1.6190 H       
 192 H192           0.3196   -14.3952    -1.7907 H       
 193 H193           0.6455   -13.2845    -3.1428 H       
 194 H194           0.1881   -11.3484    -1.6628 H       
 195 H195          -0.1379   -12.4591    -0.3106 H       
 196 H196           2.4222   -13.0472    -1.3481 H       
 197 H197           2.0621    -9.9077     1.1000 H       
 198 H198           4.1545   -10.9128     0.8761 H       
 199 H199          -3.6867   -15.5090    -2.0549 H       
 200 H200          -5.8294   -14.1795    -3.5275 H       
 201 H201          -5.5072   -17.2134    -3.5058 H       
 202 H202          -6.9798   -16.3574    -4.0225 H       
 203 H203          -5.6783   -15.1723    -5.7689 H       
 204 H204          -4.2056   -16.0282    -5.2522 H       
 205 H205          -5.4991   -18.0685    -8.0116 H       
 206 H206          -8.0822   -15.2203    -2.4768 H       
 207 H207          -7.6427   -16.0471     0.2892 H       
 208 H208          -8.8153   -14.1335     1.2671 H       
 209 H209          -6.6041   -13.2448    -0.6401 H       
 210 H210          -7.1379   -12.3648     0.8121 H       
 211 H211          -6.3595   -13.9575     0.9725 H       
 212 H212          -8.9542   -13.0961    -1.4410 H       
 213 H213         -10.1385   -15.9399     1.3684 H       
 214 H214         -11.5781   -17.6768    -0.4978 H       
 215 H215         -12.0314   -16.9503     2.4292 H       
 216 H216         -13.0596   -18.0750     1.5093 H       
 217 H217         -12.0263   -19.4779     3.5005 H       
 218 H218         -10.6303   -20.3165     3.0875 H       
 219 H219         -14.2306   -17.3098    -0.1938 H       
 220 H220         -14.8714   -14.4627    -0.0888 H       
 221 H221         -15.2207   -16.0848    -2.6508 H       
 222 H222         -15.8127   -14.4278    -2.3826 H       
 223 H223         -14.0631   -14.7534    -2.4150 H       
 224 H224         -17.4521   -14.3492    -0.8566 H       
 225 H225         -18.8380   -15.9310     1.0286 H       
 226 H226         -19.0087   -16.6888    -0.5729 H       
 227 H227         -21.4283   -15.8716     0.2874 H       
 228 H228         -21.8491   -13.0523    -0.3465 H       
 229 H229         -22.9456   -15.2968    -2.0983 H       
 230 H230         -23.4822   -13.6014    -2.1750 H       
 231 H231         -21.1650   -12.8917    -2.7000 H       
 232 H232         -20.6284   -14.5871    -2.6232 H       
 233 H233         -22.1779   -15.1612    -4.4720 H       
 234 H234         -22.7146   -13.4658    -4.5488 H       
 235 H235         -19.9028   -13.5219    -4.8080 H       
 236 H236         -22.1133   -14.3675    -8.0323 H       
 237 H237         -18.9770   -13.3278    -6.9933 H       
 238 H238         -19.9171   -13.6863    -8.3388 H       
 239 H239         -24.5309   -12.7924    -0.4020 H       
 240 H240         -25.7926   -14.7544     1.3547 H       
 241 H241         -26.2992   -13.1477     3.1311 H       
 242 H242         -24.5353   -13.2307     2.9070 H       
 243 H243         -25.3194   -10.9753     2.9689 H       
 244 H244         -28.1913   -13.7180     1.9176 H       
 245 H245         -29.2487   -12.8111    -0.6423 H       
 246 H246         -30.5531   -13.3211     2.0675 H       
 247 H247         -31.4420   -12.8489     0.5995 H       
 248 H248         -31.5034   -16.5427     0.6615 H       
 249 H249         -31.0599   -10.8523    -0.2608 H       
 250 H250         -30.0344    -8.8491     1.6003 H       
 251 H251         -29.5915    -7.1826    -0.1724 H       
 252 H252         -28.0856    -9.7849    -0.6897 H       
 253 H253         -27.4964    -8.1339    -0.9985 H       
 254 H254         -27.7600    -8.6867     0.6728 H       
 255 H255         -30.9998    -8.1495    -1.8419 H       
 256 H256         -31.4558    -6.6675     1.1569 H       
 257 H257         -34.0962    -7.3238     0.0961 H       
 258 H258         -33.6064    -6.8558     3.0710 H       
 259 H259         -35.2103    -6.8569     2.2990 H       
 260 H260         -34.8350    -9.1817     1.5226 H       
 261 H261         -33.2311    -9.1806     2.2946 H       
 262 H262         -34.2931    -8.7865     4.5004 H       
 263 H263         -35.8969    -8.7876     3.7284 H       
 264 H264         -34.5803   -11.1919     3.0485 H       
 265 H265         -36.3116   -10.9393     6.6452 H       
 266 H266         -35.1587   -13.1630     4.2529 H       
 267 H267         -35.8855   -13.0420     5.7628 H       
 268 H268         -35.6335    -5.2416     0.8468 H       
 269 H269         -34.0269    -2.8175     1.1118 H       
 270 H270         -35.6421    -3.4342    -1.4021 H       
 271 H271         -34.9783    -1.8336    -0.9951 H       
 272 H272         -32.6923    -2.7932    -0.9499 H       
 273 H273         -33.3561    -4.3938    -1.3569 H       
 274 H274         -31.5897    -3.6544    -3.2532 H       
 275 H275         -32.3341    -3.0007    -4.6101 H       
 276 H276         -35.8071    -0.8201     0.7891 H       
 277 H277         -38.4714    -1.6686     1.6312 H       
 278 H278         -36.6199    -0.0686     3.4534 H       
 279 H279         -38.3682    -0.2733     3.7179 H       
 280 H280         -38.0666    -2.7329     3.8073 H       
 281 H281         -36.3183    -2.5282     3.5428 H       
 282 H282         -36.7209    -3.8111     5.8784 H       
 283 H283         -36.6410    -2.7813     7.2035 H       
 284 H284         -39.7287     0.6387     2.2297 H       
 285 H285         -38.6316     2.8461     0.6640 H       
 286 H286         -41.1755     1.3743    -0.1556 H       
 287 H287         -40.6685     2.9531    -0.8028 H       
 288 H288         -39.9455    -0.6446    -0.6996 H       
 289 H289         -38.4869    -1.7832    -2.3228 H       
 290 H290         -37.4132    -0.7921    -4.9411 H       
 291 H291         -37.2704     2.0074    -3.8773 H       
 292 H292         -38.7387     3.1381    -2.2574 H       
 293 H293         -40.6265     4.6571     0.6085 H       
 294 H294         -42.3114     4.4071     2.9805 H       
 295 H295         -40.0804     6.4785     2.7785 H       
 296 H296         -41.3900     6.5183     3.9833 H       
 297 H297         -40.6880     4.2922     4.8200 H       
 298 H298         -39.3784     4.2523     3.6152 H       
 299 H299         -38.3962     6.2978     4.6151 H       
 300 H300         -39.7058     6.3377     5.8199 H       
 301 H301         -38.4644     3.8036     5.9384 H       
 302 H302         -36.6758     6.8702     7.7809 H       
 303 H303         -36.8802     3.4143     7.6731 H       
 304 H304         -36.1366     4.7119     8.4385 H       
 305 H305         -43.4461     6.8387     3.2302 H       
 306 H306         -43.6760     8.1407     0.6265 H       
 307 H307         -46.0029     6.6402     1.9083 H       
 308 H308         -46.1616     7.7821     0.5521 H       
 309 H309         -44.6263     6.3848    -0.8040 H       
 310 H310         -44.4676     5.2429     0.5522 H       
 311 H311         -46.9074     4.8075     0.4711 H       
 312 H312         -47.0660     5.9494    -0.8851 H       
 313 H313         -45.5307     4.5521    -2.2412 H       
 314 H314         -45.3721     3.4102    -0.8850 H       
 315 H315         -47.9154     4.0839    -2.2138 H       
 316 H316         -47.0403     2.6918    -2.4628 H       
 317 H317         -45.6259     9.9421     0.9382 H       
 318 H318         -46.0409    10.6356     3.7379 H       
 319 H319         -43.7843    11.6126     3.1567 H       
 320 H320         -44.5841    12.5799     1.8947 H       
 321 H321         -46.1048    13.5219     3.6776 H       
 322 H322         -45.3179    13.2415     6.0503 H       
 323 H323         -45.9202    11.7292     5.3303 H       
 324 H324         -44.1686    12.0062     5.4835 H       
 325 H325         -44.0868    14.7424     2.9115 H       
 326 H326         -44.3816    15.0198     4.6448 H       
 327 H327         -43.1082    13.8884     4.1285 H       
 328 H328         -47.6469    12.5441     3.8866 H       
 329 H329         -49.0176    13.1698     1.3852 H       
 330 H330         -50.2984    11.4548     3.5594 H       
 331 H331         -51.1864    12.2102     2.2143 H       
 332 H332         -48.8515    10.2753     1.8779 H       
 333 H333         -51.8561     9.8438     1.5576 H       
 334 H334         -50.5895     8.6555     1.1680 H       
 335 H335         -50.8426     9.1659     2.8543 H       
 336 H336         -50.8700    11.4369    -0.0952 H       
 337 H337         -49.1538    11.8940     0.0240 H       
 338 H338         -49.6033    10.2486    -0.4848 H       
 339 H339         -51.2701    14.4213     2.1744 H       
 340 H340         -50.8566    15.7723     4.7301 H       
 341 H341         -50.6698    17.2411     2.0624 H       
 342 H342         -50.8345    18.0383     3.6453 H       
 343 H343         -48.7332    16.9632     4.4053 H       
 344 H344         -48.5686    16.1660     2.8224 H       
 345 H345         -48.4748    18.3829     1.7156 H       
 346 H346         -48.6394    19.1802     3.2985 H       
 347 H347         -46.5382    18.1051     4.0585 H       
 348 H348         -46.3735    17.3078     2.4756 H       
 349 H349         -46.4732    20.2266     2.8746 H       
 350 H350         -45.0946    19.3428     2.5844 H       
 351 H351         -52.7255    17.7138     4.7480 H       
 352 H352         -55.1704    16.2561     4.0961 H       
 353 H353         -56.3021    18.0412     5.3313 H       
 354 H354         -54.8882    17.4941     6.2639 H       
 355 H355         -54.9727    19.8750     6.0899 H       
 356 H356         -56.4984    18.7652     1.7744 H       
 357 H357          20.4752   -23.9472    -0.9178 H       
 358 H358          20.6568   -22.1832    -0.7650 H       
 359 H359          20.0529   -23.1381     0.6104 H       
 360 H360          18.6215   -22.7596    -2.0588 H       
 361 H361          18.0176   -23.7145    -0.6834 H       
 362 H362          18.0280   -21.6798     0.7338 H       
 363 H363          18.6318   -20.7249    -0.6416 H       
 364 H364          16.5965   -21.3013    -1.9354 H       
 365 H365          15.9926   -22.2562    -0.5600 H       
 366 H366          16.0030   -20.2215     0.8573 H       
 367 H367          16.6068   -19.2666    -0.5181 H       
 368 H368          14.5715   -19.8430    -1.8119 H       
 369 H369          13.9677   -20.7979    -0.4365 H       
 370 H370          13.9780   -18.7632     0.9807 H       
 371 H371          14.5819   -17.8083    -0.3947 H       
 372 H372          12.5465   -18.3847    -1.6885 H       
 373 H373          11.9427   -19.3396    -0.3131 H       
 374 H374          11.9530   -17.3049     1.1042 H       
 375 H375          12.5569   -16.3500    -0.2712 H       
 376 H376          10.5216   -16.9264    -1.5650 H       
 377 H377           9.9177   -17.8813    -0.1896 H       
 378 H378           9.9280   -15.8467     1.2276 H       
 379 H379          10.5319   -14.8917    -0.1478 H       
 380 H380           8.4966   -15.4681    -1.4416 H       
 381 H381           7.8927   -16.4231    -0.0662 H       
 382 H382           7.9031   -14.3884     1.3511 H       
 383 H383           8.5069   -13.4334    -0.0243 H       
 384 H384           6.4716   -14.0098    -1.3181 H       
 385 H385           5.8677   -14.9648     0.0573 H       
 386 H386           6.4819   -11.9751     0.0991 H       
 387 H387           5.8781   -12.9301     1.4745 H       
@<TRIPOS>BOND
   1    1    2 2
   2    1    4 1
   3    1   14 am
   4    3    4 1
   5    3  187 1
   6    3  188 1
   7    4    5 1
   8    4  189 1
   9    5    6 1
  10    5  190 1
  11    5  191 1
  12    6    7 1
  13    6  192 1
  14    6  193 1
  15    7    8 1
  16    7  194 1
  17    7  195 1
  18    8    9 1
  19    8  196 1
  20    9   10 2
  21    9   11 1
  22   10  197 1
  23   11  170 am
  24   11  198 1
  25   12   13 2
  26   12   15 1
  27   12   23 am
  28   14   15 1
  29   14  199 1
  30   15   16 1
  31   15  200 1
  32   16   17 1
  33   16  201 1
  34   16  202 1
  35   17   18 1
  36   17  203 1
  37   17  204 1
  38   18   19 2
  39   18   20 1
  40   20  205 1
  41   21   22 2
  42   21   24 1
  43   21   30 am
  44   23   24 1
  45   23  206 1
  46   24   25 1
  47   24  207 1
  48   25   26 1
  49   25   27 1
  50   25  208 1
  51   26  209 1
  52   26  210 1
  53   26  211 1
  54   27  212 1
  55   28   29 2
  56   28   31 1
  57   28   38 am
  58   30   31 1
  59   30  213 1
  60   31   32 1
  61   31  214 1
  62   32   33 1
  63   32  215 1
  64   32  216 1
  65   33   34 2
  66   33   35 am
  67   35  217 1
  68   35  218 1
  69   36   37 2
  70   36   39 1
  71   36   43 am
  72   38   39 1
  73   38  219 1
  74   39   40 1
  75   39  220 1
  76   40  221 1
  77   40  222 1
  78   40  223 1
  79   41   42 2
  80   41   44 1
  81   41   47 am
  82   43   44 1
  83   43  224 1
  84   44  225 1
  85   44  226 1
  86   45   46 2
  87   45   48 1
  88   45   58 am
  89   47   48 1
  90   47  227 1
  91   48   49 1
  92   48  228 1
  93   49   50 1
  94   49  229 1
  95   49  230 1
  96   50   51 1
  97   50  231 1
  98   50  232 1
  99   51   52 1
 100   51  233 1
 101   51  234 1
 102   52   53 1
 103   52  235 1
 104   53   54 2
 105   53   55 1
 106   54  236 1
 107   55  237 1
 108   55  238 1
 109   56   57 2
 110   56   59 1
 111   56   64 am
 112   58   59 1
 113   58  239 1
 114   59   60 1
 115   59  240 1
 116   60   61 1
 117   60  241 1
 118   60  242 1
 119   61  243 1
 120   62   63 2
 121   62   65 1
 122   62   72 am
 123   64   65 1
 124   64  244 1
 125   65   66 1
 126   65  245 1
 127   66   67 1
 128   66  246 1
 129   66  247 1
 130   67   68 2
 131   67   69 1
 132   69  248 1
 133   70   71 2
 134   70   73 1
 135   70   79 am
 136   72   73 1
 137   72  249 1
 138   73   74 1
 139   73  250 1
 140   74   75 1
 141   74   76 1
 142   74  251 1
 143   75  252 1
 144   75  253 1
 145   75  254 1
 146   76  255 1
 147   77   78 2
 148   77   80 1
 149   77   90 am
 150   79   80 1
 151   79  256 1
 152   80   81 1
 153   80  257 1
 154   81   82 1
 155   81  258 1
 156   81  259 1
 157   82   83 1
 158   82  260 1
 159   82  261 1
 160   83   84 1
 161   83  262 1
 162   83  263 1
 163   84   85 1
 164   84  264 1
 165   85   86 2
 166   85   87 1
 167   86  265 1
 168   87  266 1
 169   87  267 1
 170   88   89 2
 171   88   91 1
 172   88   99 am
 173   90   91 1
 174   90  268 1
 175   91   92 1
 176   91  269 1
 177   92   93 1
 178   92  270 1
 179   92  271 1
 180   93   94 1
 181   93  272 1
 182   93  273 1
 183   94   95 2
 184   94   96 am
 185   96  274 1
 186   96  275 1
 187   97   98 2
 188   97  100 1
 189   97  108 am
 190   99  100 1
 191   99  276 1
 192  100  101 1
 193  100  277 1
 194  101  102 1
 195  101  278 1
 196  101  279 1
 197  102  103 1
 198  102  280 1
 199  102  281 1
 200  103  104 2
 201  103  105 am
 202  105  282 1
 203  105  283 1
 204  106  107 2
 205  106  109 1
 206  106  120 am
 207  108  109 1
 208  108  284 1
 209  109  110 1
 210  109  285 1
 211  110  111 1
 212  110  286 1
 213  110  287 1
 214  111  112 ar
 215  111  117 ar
 216  112  113 ar
 217  112  288 1
 218  113  114 ar
 219  113  289 1
 220  114  115 1
 221  114  116 ar
 222  115  290 1
 223  116  117 ar
 224  116  291 1
 225  117  292 1
 226  118  119 2
 227  118  121 1
 228  118  131 am
 229  120  121 1
 230  120  293 1
 231  121  122 1
 232  121  294 1
 233  122  123 1
 234  122  295 1
 235  122  296 1
 236  123  124 1
 237  123  297 1
 238  123  298 1
 239  124  125 1
 240  124  299 1
 241  124  300 1
 242  125  126 1
 243  125  301 1
 244  126  127 2
 245  126  128 1
 246  127  302 1
 247  128  303 1
 248  128  304 1
 249  129  130 2
 250  129  132 1
 251  129  140 am
 252  131  132 1
 253  131  305 1
 254  132  133 1
 255  132  306 1
 256  133  134 1
 257  133  307 1
 258  133  308 1
 259  134  135 1
 260  134  309 1
 261  134  310 1
 262  135  136 1
 263  135  311 1
 264  135  312 1
 265  136  137 1
 266  136  313 1
 267  136  314 1
 268  137  315 1
 269  137  316 1
 270  138  139 2
 271  138  141 1
 272  138  148 am
 273  140  141 1
 274  140  317 1
 275  141  142 1
 276  141  318 1
 277  142  143 1
 278  142  319 1
 279  142  320 1
 280  143  144 1
 281  143  145 1
 282  143  321 1
 283  144  322 1
 284  144  323 1
 285  144  324 1
 286  145  325 1
 287  145  326 1
 288  145  327 1
 289  146  147 2
 290  146  149 1
 291  146  156 am
 292  148  149 1
 293  148  328 1
 294  149  150 1
 295  149  329 1
 296  150  151 1
 297  150  330 1
 298  150  331 1
 299  151  152 1
 300  151  153 1
 301  151  332 1
 302  152  333 1
 303  152  334 1
 304  152  335 1
 305  153  336 1
 306  153  337 1
 307  153  338 1
 308  154  155 2
 309  154  157 1
 310  154  165 am
 311  156  157 1
 312  156  339 1
 313  157  158 1
 314  157  340 1
 315  158  159 1
 316  158  341 1
 317  158  342 1
 318  159  160 1
 319  159  343 1
 320  159  344 1
 321  160  161 1
 322  160  345 1
 323  160  346 1
 324  161  162 1
 325  161  347 1
 326  161  348 1
 327  162  349 1
 328  162  350 1
 329  163  164 2
 330  163  166 1
 331  163  169 1
 332  165  166 1
 333  165  351 1
 334  166  167 1
 335  166  352 1
 336  167  168 1
 337  167  353 1
 338  167  354 1
 339  168  355 1
 340  169  356 1
 341  170  171 2
 342  170  186 1
 343  172  173 1
 344  172  357 1
 345  172  358 1
 346  172  359 1
 347  173  174 1
 348  173  360 1
 349  173  361 1
 350  174  175 1
 351  174  362 1
 352  174  363 1
 353  175  176 1
 354  175  364 1
 355  175  365 1
 356  176  177 1
 357  176  366 1
 358  176  367 1
 359  177  178 1
 360  177  368 1
 361  177  369 1
 362  178  179 1
 363  178  370 1
 364  178  371 1
 365  179  180 1
 366  179  372 1
 367  179  373 1
 368  180  181 1
 369  180  374 1
 370  180  375 1
 371  181  182 1
 372  181  376 1
 373  181  377 1
 374  182  183 1
 375  182  378 1
 376  182  379 1
 377  183  184 1
 378  183  380 1
 379  183  381 1
 380  184  185 1
 381  184  382 1
 382  184  383 1
 383  185  186 1
 384  185  384 1
 385  185  385 1
 386  186  386 1
 387  186  387 1

#	End of record

