#	Name: ASD02198385
#	Creating user name:	WinNT
#	Creation time:	15. 06. 2019 20:19

#	Modifying user name:	WinNT
#	Modification time:	15. 06. 2019 20:19

#	Program:	/corina/corina34_cracker 3.40 0067  02.08.2006

@<TRIPOS>MOLECULE
ASD02198385
  32   34    0    0    0
SMALL
NO_CHARGES


@<TRIPOS>ATOM
   1 C1             5.4171    -0.7035    -3.0930 C.2     
   2 S2             7.0571    -0.4019    -2.5340 S.3     
   3 C3             4.5507    -0.0612    -2.3069 C.2     
   4 C4             5.1255     0.6636    -1.2758 C.2     
   5 C5             6.4579     0.6092    -1.2256 C.2     
   6 S6             4.1701     1.5875    -0.1190 S.o2    
   7 N7             4.4901     0.9711     1.3843 N.am    
   8 C8             4.3235    -0.3914     1.6290 C.ar    
   9 C9             3.5881    -1.1917     0.7271 C.ar    
  10 C10            3.4354    -2.5729     1.0005 C.ar    
  11 C11            4.0129    -3.1224     2.1564 C.ar    
  12 C12            4.7164    -2.3262     3.0086 C.ar    
  13 C13            4.8800    -0.9687     2.7498 C.ar    
  14 N14            3.0393    -0.6657    -0.3710 N.ar    
  15 C15            2.3553    -1.4032    -1.2116 C.ar    
  16 C16            2.1664    -2.7679    -1.0031 C.ar    
  17 C17            2.7019    -3.3691     0.1000 C.ar    
  18 O18            4.6934     2.9086    -0.1307 O.2     
  19 O19            2.8083     1.2885    -0.3937 O.2     
  20 Cl20           4.9907    -1.6813    -4.4626 Cl      
  21 C21            5.6649    -0.1168     3.7137 C.3     
  22 Cl22           7.4485     1.4128    -0.0480 Cl      
  23 H23            3.4829    -0.1031    -2.4630 H       
  24 H24            4.7934     1.5579     2.0947 H       
  25 H25            3.8990    -4.1750     2.3697 H       
  26 H26            5.1576    -2.7556     3.8959 H       
  27 H27            1.9268    -0.9410    -2.0886 H       
  28 H28            1.5974    -3.3496    -1.7132 H       
  29 H29            2.5657    -4.4257     0.2773 H       
  30 H30            6.7158    -0.1147     3.4241 H       
  31 H31            5.2805     0.9029     3.6935 H       
  32 H32            5.5663    -0.5225     4.7206 H       
@<TRIPOS>BOND
   1    1    2 1
   2    1    3 2
   3    1   20 1
   4    2    5 1
   5    3    4 1
   6    3   23 1
   7    4    5 2
   8    4    6 1
   9    5   22 1
  10    6    7 am
  11    6   18 2
  12    6   19 2
  13    7    8 1
  14    7   24 1
  15    8    9 ar
  16    8   13 ar
  17    9   10 ar
  18    9   14 ar
  19   10   11 ar
  20   10   17 ar
  21   11   12 ar
  22   11   25 1
  23   12   13 ar
  24   12   26 1
  25   13   21 1
  26   14   15 ar
  27   15   16 ar
  28   15   27 1
  29   16   17 ar
  30   16   28 1
  31   17   29 1
  32   21   30 1
  33   21   31 1
  34   21   32 1

#	End of record

