#	Name: ASD02030573
#	Creating user name:	WinNT
#	Creation time:	15. 06. 2019 20:15

#	Modifying user name:	WinNT
#	Modification time:	15. 06. 2019 20:15

#	Program:	/corina/corina34_cracker 3.40 0067  02.08.2006

@<TRIPOS>MOLECULE
ASD02030573
  55   57    0    0    0
SMALL
NO_CHARGES


@<TRIPOS>ATOM
   1 N1             0.5510     0.5889    -0.1400 N.am    
   2 C2             0.3403    -0.7142    -0.4118 C.2     
   3 C3            -1.0172    -1.2826    -0.2947 C.ar    
   4 O4             1.2682    -1.4217    -0.7535 O.2     
   5 C5            -1.2378    -2.6332    -0.5761 C.ar    
   6 C6            -2.5056    -3.1597    -0.4652 C.ar    
   7 C7            -3.5647    -2.3494    -0.0741 C.ar    
   8 C8            -3.3496    -1.0055     0.2062 C.ar    
   9 C9            -2.0838    -0.4726     0.1033 C.ar    
  10 O10           -4.8131    -2.8722     0.0340 O.3     
  11 C11           -5.0682    -3.6268     1.1204 C.2     
  12 N12           -6.2515    -4.2613     1.2375 N.am    
  13 O13           -4.2314    -3.7355     1.9947 O.2     
  14 C14           -7.2604    -4.1303     0.1834 C.3     
  15 C15           -6.5288    -5.0819     2.4190 C.3     
  16 C16            1.8981     1.1529    -0.2561 C.3     
  17 C17            2.6711     0.9095     1.0446 C.3     
  18 C18            4.0706     1.5163     0.9449 C.3     
  19 C19            3.9734     3.0207     0.6694 C.3     
  20 C20            3.2131     3.2319    -0.6376 C.3     
  21 C21            1.8042     2.6575    -0.4967 C.3     
  22 C22            3.1352     4.6868    -1.0032 C.2     
  23 C23            2.1695     5.0998    -1.8213 C.2     
  24 C24            1.1791     4.1420    -2.3368 C.2     
  25 C25            1.0013     2.9719    -1.7268 C.2     
  26 C26           -7.0603    -5.2366    -0.8544 C.3     
  27 C27           -7.1766    -4.2156     3.5010 C.3     
  28 H28           -0.1899     1.1543     0.1288 H       
  29 H29           -0.4153    -3.2635    -0.8805 H       
  30 H30           -2.6770    -4.2035    -0.6829 H       
  31 H31           -4.1755    -0.3789     0.5092 H       
  32 H32           -1.9174     0.5720     0.3214 H       
  33 H33           -8.2553    -4.2172     0.6199 H       
  34 H34           -7.1585    -3.1577    -0.2982 H       
  35 H35           -7.2063    -5.8917     2.1480 H       
  36 H36           -5.5963    -5.4999     2.7981 H       
  37 H37            2.4221     0.6797    -1.0866 H       
  38 H38            2.1357     1.3701     1.8748 H       
  39 H39            2.7538    -0.1630     1.2208 H       
  40 H40            4.6026     1.3541     1.8823 H       
  41 H41            4.6164     1.0347     0.1335 H       
  42 H42            3.4399     3.5080     1.4854 H       
  43 H43            4.9750     3.4417     0.5817 H       
  44 H44            3.7251     2.6937    -1.4353 H       
  45 H45            1.3170     3.1228     0.3602 H       
  46 H46            3.8540     5.3891    -0.6075 H       
  47 H47            2.1132     6.1398    -2.1071 H       
  48 H48            0.5952     4.3884    -3.2113 H       
  49 H49            0.2891     2.2572    -2.1120 H       
  50 H50           -7.8110    -5.1392    -1.6387 H       
  51 H51           -6.0653    -5.1498    -1.2909 H       
  52 H52           -7.1622    -6.2092    -0.3728 H       
  53 H53           -6.4992    -3.4058     3.7720 H       
  54 H54           -8.1092    -3.7977     3.1218 H       
  55 H55           -7.3830    -4.8262     4.3800 H       
@<TRIPOS>BOND
   1    1    2 am
   2    1   16 1
   3    1   28 1
   4    2    3 1
   5    2    4 2
   6    3    5 ar
   7    3    9 ar
   8    5    6 ar
   9    5   29 1
  10    6    7 ar
  11    6   30 1
  12    7    8 ar
  13    7   10 1
  14    8    9 ar
  15    8   31 1
  16    9   32 1
  17   10   11 1
  18   11   12 am
  19   11   13 2
  20   12   14 1
  21   12   15 1
  22   14   26 1
  23   14   33 1
  24   14   34 1
  25   15   27 1
  26   15   35 1
  27   15   36 1
  28   16   17 1
  29   16   21 1
  30   16   37 1
  31   17   18 1
  32   17   38 1
  33   17   39 1
  34   18   19 1
  35   18   40 1
  36   18   41 1
  37   19   20 1
  38   19   42 1
  39   19   43 1
  40   20   22 1
  41   20   21 1
  42   20   44 1
  43   21   25 1
  44   21   45 1
  45   22   23 2
  46   22   46 1
  47   23   24 1
  48   23   47 1
  49   24   25 2
  50   24   48 1
  51   25   49 1
  52   26   50 1
  53   26   51 1
  54   26   52 1
  55   27   53 1
  56   27   54 1
  57   27   55 1

#	End of record

