#	Name: ASD01440008
#	Creating user name:	WinNT
#	Creation time:	15. 06. 2019 19:20

#	Modifying user name:	WinNT
#	Modification time:	15. 06. 2019 19:20

#	Program:	/corina/corina34_cracker 3.40 0067  02.08.2006

@<TRIPOS>MOLECULE
ASD01440008
  50   51    0    0    0
SMALL
NO_CHARGES


@<TRIPOS>ATOM
   1 C1            -0.0178     1.4648     0.0101 C.3     
   2 N2             0.0021    -0.0041     0.0020 N.3     
   3 C3             0.7062    -0.5275     1.1802 C.3     
   4 C4             2.1851    -0.1430     1.1032 C.3     
   5 C5             2.9074    -0.6800     2.3119 C.ar    
   6 C6             3.4718    -1.9413     2.2760 C.ar    
   7 C7             4.1343    -2.4339     3.3847 C.ar    
   8 C8             4.2328    -1.6649     4.5292 C.ar    
   9 C9             3.6692    -0.4032     4.5648 C.ar    
  10 C10            3.0104     0.0911     3.4546 C.ar    
  11 N11            4.9414    -2.1927     5.7168 N.pl3   
  12 O12            5.4377    -3.3046     5.6855 O.2     
  13 O13            5.0282    -1.5152     6.7252 O.2     
  14 C14           -1.3597    -0.5486    -0.0825 C.3     
  15 C15           -1.9710    -0.1854    -1.4372 C.3     
  16 C16           -3.3893    -0.7525    -1.5252 C.3     
  17 C17           -4.0006    -0.3893    -2.8799 C.3     
  18 O18           -5.3253    -0.9190    -2.9621 O.3     
  19 C19           -6.0135    -0.6841    -4.1102 C.ar    
  20 C20           -7.3048    -1.1693    -4.2578 C.ar    
  21 C21           -8.0025    -0.9288    -5.4256 C.ar    
  22 C22           -7.4149    -0.2052    -6.4468 C.ar    
  23 C23           -6.1281     0.2794    -6.3021 C.ar    
  24 C24           -5.4281     0.0461    -5.1342 C.ar    
  25 N25           -8.1645     0.0506    -7.6971 N.pl3   
  26 O26           -9.2980    -0.3762    -7.8258 O.2     
  27 O27           -7.6478     0.6879    -8.5974 O.2     
  28 H28            1.0047     1.8421     0.0024 H       
  29 H29           -0.5450     1.8259    -0.8730 H       
  30 H30           -0.5280     1.8163     0.9069 H       
  31 H31            0.2673    -0.1040     2.0837 H       
  32 H32            0.6139    -1.6133     1.2060 H       
  33 H33            2.6240    -0.5665     0.1998 H       
  34 H34            2.2773     0.9428     1.0774 H       
  35 H35            3.3949    -2.5421     1.3818 H       
  36 H36            4.5747    -3.4196     3.3569 H       
  37 H37            3.7458     0.1974     5.4591 H       
  38 H38            2.5700     1.0768     3.4824 H       
  39 H39           -1.3244    -1.6331     0.0212 H       
  40 H40           -1.9698    -0.1268     0.7163 H       
  41 H41           -2.0063     0.8991    -1.5409 H       
  42 H42           -1.3609    -0.6071    -2.2359 H       
  43 H43           -3.3540    -1.8370    -1.4215 H       
  44 H44           -3.9994    -0.3308    -0.7265 H       
  45 H45           -4.0359     0.6952    -2.9836 H       
  46 H46           -3.3905    -0.8110    -3.6787 H       
  47 H47           -7.7641    -1.7349    -3.4606 H       
  48 H48           -9.0077    -1.3066    -5.5412 H       
  49 H49           -5.6712     0.8441    -7.1014 H       
  50 H50           -4.4230     0.4249    -5.0217 H       
@<TRIPOS>BOND
   1    1    2 1
   2    1   28 1
   3    1   29 1
   4    1   30 1
   5    2    3 1
   6    2   14 1
   7    3    4 1
   8    3   31 1
   9    3   32 1
  10    4    5 1
  11    4   33 1
  12    4   34 1
  13    5    6 ar
  14    5   10 ar
  15    6    7 ar
  16    6   35 1
  17    7    8 ar
  18    7   36 1
  19    8    9 ar
  20    8   11 1
  21    9   10 ar
  22    9   37 1
  23   10   38 1
  24   11   12 2
  25   11   13 2
  26   14   15 1
  27   14   39 1
  28   14   40 1
  29   15   16 1
  30   15   41 1
  31   15   42 1
  32   16   17 1
  33   16   43 1
  34   16   44 1
  35   17   18 1
  36   17   45 1
  37   17   46 1
  38   18   19 1
  39   19   20 ar
  40   19   24 ar
  41   20   21 ar
  42   20   47 1
  43   21   22 ar
  44   21   48 1
  45   22   23 ar
  46   22   25 1
  47   23   24 ar
  48   23   49 1
  49   24   50 1
  50   25   26 2
  51   25   27 2

#	End of record

