#	Name: ASD01900398
#	Creating user name:	WinNT
#	Creation time:	15. 06. 2019 19:51

#	Modifying user name:	WinNT
#	Modification time:	15. 06. 2019 19:51

#	Program:	/corina/corina34_cracker 3.40 0067  02.08.2006

@<TRIPOS>MOLECULE
ASD01900398
  37   40    0    0    0
SMALL
NO_CHARGES


@<TRIPOS>ATOM
   1 C1             0.3993     4.0128     0.5627 C.ar    
   2 C2             0.8407     5.0812     1.3664 C.ar    
   3 C3             2.2072     5.3465     1.4492 C.ar    
   4 C4             3.0732     4.5433     0.7336 C.ar    
   5 C5             2.5677     3.5061    -0.0395 C.ar    
   6 N6             1.2773     3.2696    -0.1066 N.ar    
   7 N7            -1.4090     4.9639     1.4819 N.2     
   8 N8            -0.2738     5.6527     1.9213 N.pl3   
   9 C9            -1.0610     3.9952     0.6770 C.2     
  10 N10           -1.9266     3.0973     0.0450 N.pl3   
  11 C11           -4.1623     2.1746     0.0492 C.ar    
  12 C12           -3.3122     3.2654     0.1553 C.ar    
  13 C13           -3.8543     4.5311     0.3736 C.ar    
  14 C14           -5.2292     4.6502     0.4766 C.ar    
  15 C15           -6.0191     3.5104     0.3596 C.ar    
  16 N16           -5.4693     2.3247     0.1524 N.ar    
  17 N17           -7.4047     3.6189     0.4621 N.3     
  18 C18           -8.0505     2.3022     0.3102 C.3     
  19 C19           -8.8995     2.0606     1.5761 C.3     
  20 C20           -9.1383     3.4954     2.1158 C.3     
  21 C21           -7.7963     4.1873     1.7696 C.3     
  22 Cl22          -5.9592     6.2015     0.7488 Cl      
  23 H23            2.5784     6.1587     2.0565 H       
  24 H24            4.1377     4.7209     0.7746 H       
  25 H25            3.2496     2.8814    -0.5973 H       
  26 H26           -0.2753     6.4132     2.5234 H       
  27 H27           -1.5672     2.3580    -0.4699 H       
  28 H28           -3.7500     1.1916    -0.1244 H       
  29 H29           -3.2163     5.3981     0.4607 H       
  30 H30           -8.6913     2.3030    -0.5715 H       
  31 H31           -7.2915     1.5252     0.2190 H       
  32 H32           -9.8452     1.5827     1.3204 H       
  33 H33           -8.3480     1.4627     2.3017 H       
  34 H34           -9.9694     3.9741     1.5979 H       
  35 H35           -9.3056     3.4846     3.1928 H       
  36 H36           -7.0445     3.9563     2.5243 H       
  37 H37           -7.9350     5.2654     1.6884 H       
@<TRIPOS>BOND
   1    1    2 ar
   2    1    6 ar
   3    1    9 1
   4    2    3 ar
   5    2    8 1
   6    3    4 ar
   7    3   23 1
   8    4    5 ar
   9    4   24 1
  10    5    6 ar
  11    5   25 1
  12    7    8 1
  13    7    9 2
  14    8   26 1
  15    9   10 1
  16   10   12 1
  17   10   27 1
  18   11   12 ar
  19   11   16 ar
  20   11   28 1
  21   12   13 ar
  22   13   14 ar
  23   13   29 1
  24   14   15 ar
  25   14   22 1
  26   15   16 ar
  27   15   17 1
  28   17   18 1
  29   17   21 1
  30   18   19 1
  31   18   30 1
  32   18   31 1
  33   19   20 1
  34   19   32 1
  35   19   33 1
  36   20   21 1
  37   20   34 1
  38   20   35 1
  39   21   36 1
  40   21   37 1

#	End of record

