#	Name: ASD01916092
#	Creating user name:	WinNT
#	Creation time:	15. 06. 2019 20:06

#	Modifying user name:	WinNT
#	Modification time:	15. 06. 2019 20:06

#	Program:	/corina/corina34_cracker 3.40 0067  02.08.2006

@<TRIPOS>MOLECULE
ASD01916092
  43   45    0    0    0
SMALL
NO_CHARGES


@<TRIPOS>ATOM
   1 C1            -0.3937     1.7226     0.1102 C.ar    
   2 C2            -0.5243     0.3723     0.3796 C.ar    
   3 N3             0.5199    -0.3559     0.7137 N.ar    
   4 C4             1.7370     0.1675     0.8064 C.ar    
   5 C5             1.9484     1.5185     0.5501 C.ar    
   6 C6             0.8634     2.3156     0.1947 C.ar    
   7 C7            -1.8824    -0.2746     0.2897 C.3     
   8 O8             1.0272     3.6380    -0.0640 O.3     
   9 C9             2.2783     4.1583     0.0407 C.ar    
  10 C10            3.2083     3.9631    -0.9701 C.ar    
  11 N11            4.4230     4.4661    -0.8736 N.ar    
  12 C12            4.8028     5.1685     0.1755 C.ar    
  13 C13            3.9318     5.4055     1.2244 C.ar    
  14 C14            2.6427     4.8993     1.1606 C.ar    
  15 C15            2.8798    -0.6950     1.1868 C.2     
  16 N16            2.6818    -2.0044     1.4369 N.am    
  17 O17            3.9957    -0.2218     1.2733 O.2     
  18 C18            3.7693    -2.8372     1.6911 C.ar    
  19 C19            3.5703    -4.2057     1.8335 C.ar    
  20 C20            4.6594    -5.0216     2.0854 C.ar    
  21 C21            5.9147    -4.4381     2.1865 C.ar    
  22 C22            6.0391    -3.0710     2.0340 C.ar    
  23 N23            4.9835    -2.3188     1.7895 N.ar    
  24 Cl24           4.4449     6.3316     2.6002 Cl      
  25 C25            7.3992    -2.4311     2.1431 C.3     
  26 C26            7.6825    -1.6166     0.8793 C.3     
  27 H27           -1.2566     2.3099    -0.1670 H       
  28 H28            2.9387     1.9426     0.6263 H       
  29 H29           -2.0424    -0.6445    -0.7231 H       
  30 H30           -1.9362    -1.1058     0.9928 H       
  31 H31           -2.6510     0.4586     0.5343 H       
  32 H32            2.9342     3.3926    -1.8452 H       
  33 H33            5.8070     5.5639     0.2169 H       
  34 H34            1.9414     5.0685     1.9643 H       
  35 H35            1.7821    -2.3670     1.4398 H       
  36 H36            2.5792    -4.6264     1.7490 H       
  37 H37            4.5354    -6.0882     2.2010 H       
  38 H38            6.7851    -5.0466     2.3828 H       
  39 H39            7.4227    -1.7735     3.0121 H       
  40 H40            8.1576    -3.2062     2.2534 H       
  41 H41            8.6662    -1.1538     0.9582 H       
  42 H42            7.6590    -2.2742     0.0103 H       
  43 H43            6.9241    -0.8415     0.7690 H       
@<TRIPOS>BOND
   1    1    2 ar
   2    1    6 ar
   3    1   27 1
   4    2    3 ar
   5    2    7 1
   6    3    4 ar
   7    4    5 ar
   8    4   15 1
   9    5    6 ar
  10    5   28 1
  11    6    8 1
  12    7   29 1
  13    7   30 1
  14    7   31 1
  15    8    9 1
  16    9   10 ar
  17    9   14 ar
  18   10   11 ar
  19   10   32 1
  20   11   12 ar
  21   12   13 ar
  22   12   33 1
  23   13   14 ar
  24   13   24 1
  25   14   34 1
  26   15   16 am
  27   15   17 2
  28   16   18 1
  29   16   35 1
  30   18   19 ar
  31   18   23 ar
  32   19   20 ar
  33   19   36 1
  34   20   21 ar
  35   20   37 1
  36   21   22 ar
  37   21   38 1
  38   22   23 ar
  39   22   25 1
  40   25   26 1
  41   25   39 1
  42   25   40 1
  43   26   41 1
  44   26   42 1
  45   26   43 1

#	End of record

