#	Name: ASD01911646
#	Creating user name:	WinNT
#	Creation time:	15. 06. 2019 19:58

#	Modifying user name:	WinNT
#	Modification time:	15. 06. 2019 19:58

#	Program:	/corina/corina34_cracker 3.40 0067  02.08.2006

@<TRIPOS>MOLECULE
ASD01911646
  57   61    0    0    0
SMALL
NO_CHARGES


@<TRIPOS>ATOM
   1 C1             0.1197     1.4065     0.1987 C.ar    
   2 C2             0.1163     0.0270     0.2445 C.ar    
   3 C3             1.2648    -0.6817    -0.1012 C.ar    
   4 C4             2.4112     0.0070    -0.4915 C.ar    
   5 C5             2.4037     1.3866    -0.5337 C.ar    
   6 C6             1.2607     2.0853    -0.1894 C.ar    
   7 C7             1.2671    -2.1653    -0.0534 C.2     
   8 N8             0.2520    -2.9271     0.2971 N.2     
   9 C9             2.3511    -2.9973    -0.3803 C.2     
  10 C10            1.9507    -4.2899    -0.2081 C.2     
  11 N11            0.6533    -4.2662     0.2113 N.pl3   
  12 C12            2.7737    -5.4984    -0.4377 C.ar    
  13 C13            2.4513    -6.6967     0.1996 C.ar    
  14 C14            3.2225    -7.8199    -0.0186 C.ar    
  15 C15            4.3134    -7.7593    -0.8673 C.ar    
  16 C16            4.6384    -6.5738    -1.5019 C.ar    
  17 C17            3.8714    -5.4453    -1.2968 C.ar    
  18 C18           -0.1744    -5.4352     0.5187 C.3     
  19 C19           -0.1012    -5.7283     1.9951 C.2     
  20 N20           -0.7880    -6.7670     2.5107 N.am    
  21 O21            0.5758    -5.0296     2.7192 O.2     
  22 C22           -0.7304    -7.0707     3.9487 C.3     
  23 C23           -1.6197    -7.6232     1.6515 C.3     
  24 C24           -3.0157    -7.7287     2.2747 C.3     
  25 N25           -2.8938    -8.1783     3.6678 N.3     
  26 C26           -2.1632    -7.1991     4.4768 C.3     
  27 C27           -4.1437    -8.4424     4.2174 C.ar    
  28 C28           -4.2386    -8.8814     5.5342 C.ar    
  29 N29           -5.2323    -8.2686     3.4845 N.ar    
  30 C30           -6.4372    -8.5075     3.9672 C.ar    
  31 C31           -6.6052    -8.9503     5.2647 C.ar    
  32 C32           -5.4876    -9.1405     6.0686 C.ar    
  33 Cl33          -8.1961    -9.2595     5.8869 Cl      
  34 H34           -0.7715     1.9568     0.4622 H       
  35 H35           -0.7750    -0.5020     0.5480 H       
  36 H36            3.3043    -0.5376    -0.7601 H       
  37 H37            3.2919     1.9214    -0.8361 H       
  38 H38            1.2592     3.1647    -0.2235 H       
  39 H39            3.3269    -2.6717    -0.7091 H       
  40 H40            1.6002    -6.7451     0.8626 H       
  41 H41            2.9742    -8.7481     0.4744 H       
  42 H42            4.9139    -8.6412    -1.0349 H       
  43 H43            5.4917    -6.5326    -2.1627 H       
  44 H44            4.1260    -4.5204    -1.7930 H       
  45 H45           -1.2083    -5.2319     0.2395 H       
  46 H46            0.1906    -6.2962    -0.0413 H       
  47 H47           -0.1976    -8.0089     4.1038 H       
  48 H48           -0.2178    -6.2642     4.4730 H       
  49 H49           -1.6948    -7.1818     0.6576 H       
  50 H50           -1.1739    -8.6154     1.5818 H       
  51 H51           -3.5004    -6.7527     2.2485 H       
  52 H52           -3.6121    -8.4466     1.7116 H       
  53 H53           -2.1355    -7.5325     5.5142 H       
  54 H54           -2.6640    -6.2327     4.4182 H       
  55 H55           -3.3489    -9.0184     6.1309 H       
  56 H56           -7.3028    -8.3544     3.3398 H       
  57 H57           -5.5919    -9.4864     7.0864 H       
@<TRIPOS>BOND
   1    1    2 ar
   2    1    6 ar
   3    1   34 1
   4    2    3 ar
   5    2   35 1
   6    3    4 ar
   7    3    7 1
   8    4    5 ar
   9    4   36 1
  10    5    6 ar
  11    5   37 1
  12    6   38 1
  13    7    8 2
  14    7    9 1
  15    8   11 1
  16    9   10 2
  17    9   39 1
  18   10   11 1
  19   10   12 1
  20   11   18 1
  21   12   13 ar
  22   12   17 ar
  23   13   14 ar
  24   13   40 1
  25   14   15 ar
  26   14   41 1
  27   15   16 ar
  28   15   42 1
  29   16   17 ar
  30   16   43 1
  31   17   44 1
  32   18   19 1
  33   18   45 1
  34   18   46 1
  35   19   20 am
  36   19   21 2
  37   20   22 1
  38   20   23 1
  39   22   26 1
  40   22   47 1
  41   22   48 1
  42   23   24 1
  43   23   49 1
  44   23   50 1
  45   24   25 1
  46   24   51 1
  47   24   52 1
  48   25   26 1
  49   25   27 1
  50   26   53 1
  51   26   54 1
  52   27   28 ar
  53   27   29 ar
  54   28   32 ar
  55   28   55 1
  56   29   30 ar
  57   30   31 ar
  58   30   56 1
  59   31   32 ar
  60   31   33 1
  61   32   57 1

#	End of record

