#	Name: ASD03091687
#	Creating user name:	WinNT
#	Creation time:	15. 06. 2019 20:31

#	Modifying user name:	WinNT
#	Modification time:	15. 06. 2019 20:31

#	Program:	/corina/corina34_cracker 3.40 0067  02.08.2006

@<TRIPOS>MOLECULE
ASD03091687
  20   21    0    0    0
SMALL
NO_CHARGES


@<TRIPOS>ATOM
   1 C1            -0.0169     1.3979     0.0097 C.ar    
   2 C2             0.0021    -0.0041     0.0020 C.ar    
   3 C3             1.2599    -0.6545    -0.0130 C.ar    
   4 C4             2.3947     0.1052    -0.0194 C.ar    
   5 C5             2.2963     1.4889    -0.0110 C.ar    
   6 N6             1.1264     2.0853     0.0025 N.ar    
   7 C7            -1.2844    -0.5635     0.0113 C.2     
   8 C8            -2.2938     0.3140     0.0256 C.2     
   9 S9            -1.6854     1.9598     0.0359 S.3     
  10 C10           -3.7160    -0.0502     0.0372 C.2     
  11 O11           -4.0438    -1.2209     0.0340 O.2     
  12 O12           -4.6587     0.9139     0.0514 O.3     
  13 C13           -6.0446     0.4807     0.0623 C.3     
  14 H14            1.3207    -1.7328    -0.0190 H       
  15 H15            3.3648    -0.3693    -0.0305 H       
  16 H16            3.1965     2.0855    -0.0157 H       
  17 H17           -1.4487    -1.6309     0.0068 H       
  18 H18           -6.2465    -0.1134    -0.8290 H       
  19 H19           -6.2296    -0.1230     0.9508 H       
  20 H20           -6.6979     1.3531     0.0732 H       
@<TRIPOS>BOND
   1    1    2 ar
   2    1    6 ar
   3    1    9 1
   4    2    3 ar
   5    2    7 1
   6    3    4 ar
   7    3   14 1
   8    4    5 ar
   9    4   15 1
  10    5    6 ar
  11    5   16 1
  12    7    8 2
  13    7   17 1
  14    8    9 1
  15    8   10 1
  16   10   11 2
  17   10   12 1
  18   12   13 1
  19   13   18 1
  20   13   19 1
  21   13   20 1

#	End of record

