#	Name: ASD03240951
#	Creating user name:	WinNT
#	Creation time:	15. 06. 2019 20:35

#	Modifying user name:	WinNT
#	Modification time:	15. 06. 2019 20:35

#	Program:	/corina/corina34_cracker 3.40 0067  02.08.2006

@<TRIPOS>MOLECULE
ASD03240951
  66   71    0    0    0
SMALL
NO_CHARGES


@<TRIPOS>ATOM
   1 N1            -0.0178     1.4642     0.0101 N.3     
   2 C2             0.0021    -0.0041     0.0020 C.3     
   3 C3             0.7039    -0.5130     1.2631 C.3     
   4 C4             2.1331     0.0352     1.3025 C.3     
   5 C5             2.0858     1.5651     1.2611 C.3     
   6 C6             1.3439     2.0138     0.0000 C.3     
   7 C7             2.8099    -0.4136     2.5720 C.2     
   8 O8             2.2093    -1.1040     3.3679 O.2     
   9 N9             4.0825    -0.0476     2.8228 N.am    
  10 N10            4.6960    -0.4544     3.9735 N.3     
  11 C11           -0.8045     1.9863    -1.1153 C.3     
  12 C12           -1.0092     3.4690    -0.9402 C.ar    
  13 C13           -0.0910     4.3584    -1.4693 C.ar    
  14 C14           -0.2730     5.7171    -1.3127 C.ar    
  15 C15           -1.3857     6.1934    -0.6192 C.ar    
  16 C16           -2.3079     5.2916    -0.0881 C.ar    
  17 C17           -2.1175     3.9353    -0.2560 C.ar    
  18 N18            0.4393    10.5598     0.0407 N.pl3   
  19 C19            0.2754    11.9090     0.2021 C.2     
  20 N20           -0.9402    12.4842     0.2034 N.2     
  21 C21           -2.0371    11.7882     0.0504 C.2     
  22 C22           -1.9408    10.3409    -0.1274 C.ar    
  23 C23           -3.0778     9.5430    -0.2948 C.ar    
  24 C24           -2.8945     8.1739    -0.4578 C.ar    
  25 C25           -1.5868     7.6504    -0.4471 C.ar    
  26 N26           -0.5339     8.4375    -0.2856 N.ar    
  27 C27           -0.6625     9.7435    -0.1283 C.ar    
  28 C28            1.5451    12.4517     0.3463 C.2     
  29 C29            2.4613    11.4104     0.2685 C.2     
  30 N30            1.8112    10.2850     0.0929 N.2     
  31 C31           -4.0608     7.2767    -0.6389 C.ar    
  32 C32           -5.1405     7.3466     0.2401 C.ar    
  33 C33           -6.2236     6.5093     0.0663 C.ar    
  34 C34           -6.2393     5.6020    -0.9777 C.ar    
  35 C35           -5.1705     5.5278    -1.8529 C.ar    
  36 C36           -4.0845     6.3641    -1.6923 C.ar    
  37 C37            3.9580    11.5504     0.3746 C.3     
  38 H38           -1.0204    -0.3810    -0.0218 H       
  39 H39            0.5390    -0.3552    -0.8792 H       
  40 H40            0.1597    -0.1738     2.1445 H       
  41 H41            0.7324    -1.6025     1.2493 H       
  42 H42            2.6892    -0.3354     0.4414 H       
  43 H43            1.5633     1.9370     2.1425 H       
  44 H44            3.1015     1.9603     1.2458 H       
  45 H45            1.8745     1.6533    -0.8812 H       
  46 H46            1.2960     3.1025    -0.0252 H       
  47 H47            4.5628     0.5046     2.1862 H       
  48 H48            4.6775    -1.4598     4.0572 H       
  49 H49            5.6412    -0.1048     4.0224 H       
  50 H50           -0.2719     1.8007    -2.0480 H       
  51 H51           -1.7729     1.4868    -1.1444 H       
  52 H52            0.7703     3.9884    -2.0056 H       
  53 H53            0.4446     6.4104    -1.7258 H       
  54 H54           -3.1712     5.6543     0.4501 H       
  55 H55           -2.8330     3.2363     0.1512 H       
  56 H56           -3.0005    12.2763     0.0559 H       
  57 H57           -4.0669     9.9767    -0.2977 H       
  58 H58            1.7786    13.4960     0.4923 H       
  59 H59           -5.1291     8.0544     1.0558 H       
  60 H60           -7.0605     6.5623     0.7469 H       
  61 H61           -7.0891     4.9487    -1.1099 H       
  62 H62           -5.1879     4.8170    -2.6658 H       
  63 H63           -3.2527     6.3084    -2.3788 H       
  64 H64            4.2588    11.4552     1.4180 H       
  65 H65            4.4387    10.7695    -0.2147 H       
  66 H66            4.2592    12.5276    -0.0027 H       
@<TRIPOS>BOND
   1    1    2 1
   2    1    6 1
   3    1   11 1
   4    2    3 1
   5    2   38 1
   6    2   39 1
   7    3    4 1
   8    3   40 1
   9    3   41 1
  10    4    5 1
  11    4    7 1
  12    4   42 1
  13    5    6 1
  14    5   43 1
  15    5   44 1
  16    6   45 1
  17    6   46 1
  18    7    8 2
  19    7    9 am
  20    9   10 1
  21    9   47 1
  22   10   48 1
  23   10   49 1
  24   11   12 1
  25   11   50 1
  26   11   51 1
  27   12   13 ar
  28   12   17 ar
  29   13   14 ar
  30   13   52 1
  31   14   15 ar
  32   14   53 1
  33   15   16 ar
  34   15   25 1
  35   16   17 ar
  36   16   54 1
  37   17   55 1
  38   18   19 1
  39   18   27 1
  40   18   30 1
  41   19   20 1
  42   19   28 2
  43   20   21 2
  44   21   22 1
  45   21   56 1
  46   22   23 ar
  47   22   27 ar
  48   23   24 ar
  49   23   57 1
  50   24   25 ar
  51   24   31 1
  52   25   26 ar
  53   26   27 ar
  54   28   29 1
  55   28   58 1
  56   29   30 2
  57   29   37 1
  58   31   32 ar
  59   31   36 ar
  60   32   33 ar
  61   32   59 1
  62   33   34 ar
  63   33   60 1
  64   34   35 ar
  65   34   61 1
  66   35   36 ar
  67   35   62 1
  68   36   63 1
  69   37   64 1
  70   37   65 1
  71   37   66 1

#	End of record

