#	Name: ASD01700007
#	Creating user name:	WinNT
#	Creation time:	15. 06. 2019 19:22

#	Modifying user name:	WinNT
#	Modification time:	15. 06. 2019 19:22

#	Program:	/corina/corina34_cracker 3.40 0067  02.08.2006

@<TRIPOS>MOLECULE
ASD01700007
  57   61    0    0    0
SMALL
NO_CHARGES


@<TRIPOS>ATOM
   1 C1            -1.2860     1.3304    -3.9606 C.ar    
   2 C2            -0.3187     1.2427    -2.9553 C.ar    
   3 C3            -0.7006     1.3882    -1.6203 C.ar    
   4 C4            -2.0275     1.6168    -1.2957 C.ar    
   5 C5            -2.9768     1.7067    -2.2938 C.ar    
   6 C6            -2.6018     1.5665    -3.6232 C.ar    
   7 C7            -2.3946     1.7555     0.1598 C.3     
   8 C8            -3.7730     2.4035     0.2915 C.3     
   9 N9            -4.7147     1.6796    -0.5771 N.3     
  10 C10           -4.4289     1.9668    -1.9862 C.3     
  11 C11           -6.1048     2.0166    -0.2427 C.3     
  12 Cl12          -0.8316     1.1501    -5.6263 Cl      
  13 C13            1.0946     0.9978    -3.3023 C.2     
  14 O14            1.8397     1.9343    -3.5117 O.2     
  15 O15            1.5586    -0.2642    -3.3867 O.3     
  16 Cl16           0.4915     1.2815    -0.3628 Cl      
  17 C17           -6.3292     3.4916    -0.4548 C.ar    
  18 C18           -6.0262     4.3887     0.5523 C.ar    
  19 C19           -6.2321     5.7417     0.3576 C.ar    
  20 C20           -6.7405     6.1976    -0.8442 C.ar    
  21 C21           -7.0427     5.3006    -1.8516 C.ar    
  22 C22           -6.8327     3.9480    -1.6586 C.ar    
  23 C23           -7.0387     1.2337    -1.1293 C.ar    
  24 C24           -8.3719     1.5892    -1.2137 C.ar    
  25 C25           -9.2285     0.8711    -2.0270 C.ar    
  26 C26           -8.7519    -0.2022    -2.7562 C.ar    
  27 C27           -7.4185    -0.5571    -2.6725 C.ar    
  28 C28           -6.5609     0.1637    -1.8626 C.ar    
  29 C29           -6.3727     1.6700     1.1993 C.ar    
  30 C30           -5.5932     0.7247     1.8393 C.ar    
  31 C31           -5.8389     0.4068     3.1619 C.ar    
  32 C32           -6.8639     1.0345     3.8447 C.ar    
  33 C33           -7.6429     1.9804     3.2050 C.ar    
  34 C34           -7.3944     2.3015     1.8836 C.ar    
  35 H35           -3.3492     1.6344    -4.3998 H       
  36 H36           -2.4126     0.7694     0.6239 H       
  37 H37           -1.6532     2.3767     0.6623 H       
  38 H38           -4.1088     2.3426     1.3267 H       
  39 H39           -3.7179     3.4473    -0.0177 H       
  40 H40           -4.6591     3.0117    -2.1942 H       
  41 H41           -5.0498     1.3298    -2.6162 H       
  42 H42            2.4913    -0.3746    -3.6169 H       
  43 H43           -5.6289     4.0325     1.4912 H       
  44 H44           -5.9960     6.4425     1.1447 H       
  45 H45           -6.9020     7.2547    -0.9960 H       
  46 H46           -7.4402     5.6568    -2.7905 H       
  47 H47           -7.0653     3.2475    -2.4470 H       
  48 H48           -8.7443     2.4277    -0.6440 H       
  49 H49          -10.2703     1.1484    -2.0924 H       
  50 H50           -9.4213    -0.7637    -3.3910 H       
  51 H51           -7.0461    -1.3958    -3.2419 H       
  52 H52           -5.5184    -0.1113    -1.8000 H       
  53 H53           -4.7923     0.2343     1.3058 H       
  54 H54           -5.2303    -0.3323     3.6617 H       
  55 H55           -7.0564     0.7856     4.8779 H       
  56 H56           -8.4439     2.4706     3.7383 H       
  57 H57           -8.0006     3.0433     1.3849 H       
@<TRIPOS>BOND
   1    1    2 ar
   2    1   12 1
   3    1    6 ar
   4    2    3 ar
   5    2   13 1
   6    3    4 ar
   7    3   16 1
   8    4    5 ar
   9    4    7 1
  10    5    6 ar
  11    5   10 1
  12    6   35 1
  13    7    8 1
  14    7   36 1
  15    7   37 1
  16    8    9 1
  17    8   38 1
  18    8   39 1
  19    9   10 1
  20    9   11 1
  21   10   40 1
  22   10   41 1
  23   11   17 1
  24   11   23 1
  25   11   29 1
  26   13   14 2
  27   13   15 1
  28   15   42 1
  29   17   18 ar
  30   17   22 ar
  31   18   19 ar
  32   18   43 1
  33   19   20 ar
  34   19   44 1
  35   20   21 ar
  36   20   45 1
  37   21   22 ar
  38   21   46 1
  39   22   47 1
  40   23   24 ar
  41   23   28 ar
  42   24   25 ar
  43   24   48 1
  44   25   26 ar
  45   25   49 1
  46   26   27 ar
  47   26   50 1
  48   27   28 ar
  49   27   51 1
  50   28   52 1
  51   29   30 ar
  52   29   34 ar
  53   30   31 ar
  54   30   53 1
  55   31   32 ar
  56   31   54 1
  57   32   33 ar
  58   32   55 1
  59   33   34 ar
  60   33   56 1
  61   34   57 1

#	End of record

