#	Name: ASD01913482
#	Creating user name:	WinNT
#	Creation time:	15. 06. 2019 20:01

#	Modifying user name:	WinNT
#	Modification time:	15. 06. 2019 20:01

#	Program:	/corina/corina34_cracker 3.40 0067  02.08.2006

@<TRIPOS>MOLECULE
ASD01913482
  35   37    0    0    0
SMALL
NO_CHARGES


@<TRIPOS>ATOM
   1 C1            -0.3710    -0.6956    -2.1237 C.ar    
   2 C2            -0.8202    -0.0317    -0.9867 C.ar    
   3 C3            -0.7969     1.3593    -0.9831 C.ar    
   4 N4            -0.3515     1.9966    -2.0533 N.ar    
   5 C5             0.0658     1.3316    -3.1118 C.ar    
   6 N6             0.0593     0.0143    -3.1537 N.ar    
   7 C7            -1.2486    -2.0816     0.0341 C.ar    
   8 C8            -0.0532    -2.7722     0.1758 C.ar    
   9 N9            -0.0235    -4.0892     0.1258 N.ar    
  10 C10           -1.1158    -4.8030    -0.0589 C.ar    
  11 C11           -2.3515    -4.1860    -0.2097 C.ar    
  12 C12           -2.4243    -2.7972    -0.1625 C.ar    
  13 N13           -3.5065    -4.9503    -0.4058 N.am    
  14 C14           -4.6761    -4.5548     0.1345 C.2     
  15 O15           -1.2706    -0.7241     0.0925 O.3     
  16 C16           -5.8693    -5.4183     0.0256 C.ar    
  17 C17           -7.0851    -5.0095     0.5861 C.ar    
  18 C18           -8.2038    -5.8194     0.4838 C.ar    
  19 C19           -8.1273    -7.0312    -0.1690 C.ar    
  20 C20           -5.7895    -6.6397    -0.6405 C.ar    
  21 O21           -4.7490    -3.4873     0.7117 O.2     
  22 C22           -6.9183    -7.4512    -0.7329 C.ar    
  23 C23           -6.8423    -8.7109    -1.4099 C.1     
  24 N24           -6.7820    -9.7101    -1.9469 N.1     
  25 F25           -7.1672    -3.8236     1.2280 F       
  26 H26           -0.3693    -1.7748    -2.1632 H       
  27 H27           -1.1377     1.9108    -0.1193 H       
  28 H28            0.4234     1.8818    -3.9695 H       
  29 H29            0.8645    -2.2236     0.3285 H       
  30 H30           -1.0495    -5.8805    -0.0937 H       
  31 H31           -3.3700    -2.2881    -0.2760 H       
  32 H32           -3.4656    -5.7650    -0.9308 H       
  33 H33           -9.1400    -5.5004     0.9176 H       
  34 H34           -9.0035    -7.6581    -0.2449 H       
  35 H35           -4.8552    -6.9583    -1.0788 H       
@<TRIPOS>BOND
   1    1    2 ar
   2    1    6 ar
   3    1   26 1
   4    2    3 ar
   5    2   15 1
   6    3    4 ar
   7    3   27 1
   8    4    5 ar
   9    5    6 ar
  10    5   28 1
  11    7    8 ar
  12    7   12 ar
  13    7   15 1
  14    8    9 ar
  15    8   29 1
  16    9   10 ar
  17   10   11 ar
  18   10   30 1
  19   11   12 ar
  20   11   13 1
  21   12   31 1
  22   13   14 am
  23   13   32 1
  24   14   16 1
  25   14   21 2
  26   16   17 ar
  27   16   20 ar
  28   17   18 ar
  29   17   25 1
  30   18   19 ar
  31   18   33 1
  32   19   22 ar
  33   19   34 1
  34   20   22 ar
  35   20   35 1
  36   22   23 1
  37   23   24 3

#	End of record

