#	Name: ASD01890206
#	Creating user name:	WinNT
#	Creation time:	15. 06. 2019 19:50

#	Modifying user name:	WinNT
#	Modification time:	15. 06. 2019 19:50

#	Program:	/corina/corina34_cracker 3.40 0067  02.08.2006

@<TRIPOS>MOLECULE
ASD01890206
  47   48    0    0    0
SMALL
NO_CHARGES


@<TRIPOS>ATOM
   1 C1            -0.0178     1.4581     0.0101 C.2     
   2 C2             0.0021    -0.0041     0.0020 C.2     
   3 C3             1.1795    -0.6627    -0.0128 C.2     
   4 C4             1.1999    -2.1695    -0.0210 C.3     
   5 C5             1.3188    -2.6700    -1.4620 C.3     
   6 O6             1.0271     2.0805     0.0034 O.2     
   7 O7            -1.1951     2.1167     0.0192 O.3     
   8 C8             2.4439     0.0905    -0.0208 C.ar    
   9 C9             2.7967     0.8833     1.0760 C.ar    
  10 C10            3.9833     1.5855     1.0610 C.ar    
  11 C11            4.8240     1.5076    -0.0357 C.ar    
  12 C12            4.4816     0.7256    -1.1251 C.ar    
  13 C13            3.3015     0.0125    -1.1228 C.ar    
  14 C14            1.3392    -4.1769    -1.4703 C.ar    
  15 C15            0.1552    -4.8836    -1.5671 C.ar    
  16 C16            0.1739    -6.2658    -1.5746 C.ar    
  17 C17            1.3768    -6.9413    -1.4858 C.ar    
  18 C18            2.5609    -6.2345    -1.3899 C.ar    
  19 C19            2.5425    -4.8522    -1.3867 C.ar    
  20 C20            1.3971    -8.4481    -1.4931 C.3     
  21 C21            1.5149    -8.9496    -2.9337 C.3     
  22 C22           -1.1397     3.5446     0.0267 C.3     
  23 C23           -2.5613     4.1101     0.0365 C.3     
  24 H24           -0.9258    -0.5567     0.0079 H       
  25 H25            2.0522    -2.5245     0.5584 H       
  26 H26            0.2777    -2.5478     0.4201 H       
  27 H27            0.4666    -2.3150    -2.0414 H       
  28 H28            2.2410    -2.2917    -1.9031 H       
  29 H29            2.1414     0.9456     1.9322 H       
  30 H30            4.2572     2.1982     1.9072 H       
  31 H31            5.7518     2.0603    -0.0416 H       
  32 H32            5.1425     0.6705    -1.9775 H       
  33 H33            3.0378    -0.6008    -1.9717 H       
  34 H34           -0.7846    -4.3559    -1.6365 H       
  35 H35           -0.7512    -6.8180    -1.6496 H       
  36 H36            3.5006    -6.7622    -1.3202 H       
  37 H37            3.4679    -4.3000    -1.3155 H       
  38 H38            2.2498    -8.8027    -0.9140 H       
  39 H39            0.4752    -8.8261    -1.0510 H       
  40 H40            0.6623    -8.5950    -3.5128 H       
  41 H41            2.4368    -8.5717    -3.3758 H       
  42 H42            1.5296   -10.0395    -2.9390 H       
  43 H43           -0.6079     3.8829     0.9160 H       
  44 H44           -0.6164     3.8926    -0.8639 H       
  45 H45           -3.0931     3.7718    -0.8528 H       
  46 H46           -3.0846     3.7622     0.9271 H       
  47 H47           -2.5190     5.1993     0.0423 H       
@<TRIPOS>BOND
   1    1    2 1
   2    1    6 2
   3    1    7 1
   4    2    3 2
   5    2   24 1
   6    3    4 1
   7    3    8 1
   8    4    5 1
   9    4   25 1
  10    4   26 1
  11    5   14 1
  12    5   27 1
  13    5   28 1
  14    7   22 1
  15    8    9 ar
  16    8   13 ar
  17    9   10 ar
  18    9   29 1
  19   10   11 ar
  20   10   30 1
  21   11   12 ar
  22   11   31 1
  23   12   13 ar
  24   12   32 1
  25   13   33 1
  26   14   15 ar
  27   14   19 ar
  28   15   16 ar
  29   15   34 1
  30   16   17 ar
  31   16   35 1
  32   17   18 ar
  33   17   20 1
  34   18   19 ar
  35   18   36 1
  36   19   37 1
  37   20   21 1
  38   20   38 1
  39   20   39 1
  40   21   40 1
  41   21   41 1
  42   21   42 1
  43   22   23 1
  44   22   43 1
  45   22   44 1
  46   23   45 1
  47   23   46 1
  48   23   47 1

#	End of record

