#	Name: ASD02500776
#	Creating user name:	WinNT
#	Creation time:	15. 06. 2019 20:23

#	Modifying user name:	WinNT
#	Modification time:	15. 06. 2019 20:23

#	Program:	/corina/corina34_cracker 3.40 0067  02.08.2006

@<TRIPOS>MOLECULE
ASD02500776
  49   52    0    0    0
SMALL
NO_CHARGES


@<TRIPOS>ATOM
   1 C1             0.0021    -0.0041     0.0020 C.1     
   2 C2            -0.0173     1.4278     0.0099 C.ar    
   3 C3             1.1804     2.1455     0.0023 C.ar    
   4 C4             1.1544     3.5247     0.0100 C.ar    
   5 C5            -0.0549     4.1969     0.0257 C.ar    
   6 C6            -1.2455     3.4920     0.0337 C.ar    
   7 C7            -1.2341     2.1126     0.0194 C.ar    
   8 N8             0.0175    -1.1399    -0.0042 N.1     
   9 S9            -0.0788     5.9587     0.0360 S.o2    
  10 O10           -1.3285     6.3398     0.5949 O.2     
  11 O11            1.1706     6.3738     0.5707 O.2     
  12 N12           -0.1009     6.4579    -1.5428 N.am    
  13 C13           -1.3757     6.6661    -2.2437 C.3     
  14 C14           -1.4008     8.0947    -2.8012 C.3     
  15 N15           -0.1459     8.3379    -3.5264 N.am    
  16 C16            1.1289     8.1297    -2.8255 C.3     
  17 C17            1.1540     6.7065    -2.2663 C.3     
  18 S18           -0.1680     8.8371    -5.1052 S.o2    
  19 O19            1.0819     8.4565    -5.6639 O.2     
  20 O20           -1.4172     8.4216    -5.6400 O.2     
  21 O21           -0.2739    14.7296    -5.0774 O.3     
  22 C22           -0.2350    13.3691    -5.0814 C.ar    
  23 C23            0.9791    12.6921    -5.0940 C.ar    
  24 O24            2.1570    13.3742    -5.0976 O.3     
  25 C25            2.0987    14.7563    -5.4668 C.3     
  26 C26            0.9328    15.4068    -4.7096 C.3     
  27 C27            0.9955    11.3056    -5.1022 C.ar    
  28 C28           -0.1926    10.5989    -5.0948 C.ar    
  29 C29           -1.3996    11.2720    -5.0798 C.ar    
  30 C30           -1.4230    12.6542    -5.0733 C.ar    
  31 H31            2.1250     1.6220    -0.0092 H       
  32 H32            2.0800     4.0810     0.0042 H       
  33 H33           -2.1859     4.0230     0.0463 H       
  34 H34           -2.1642     1.5637     0.0208 H       
  35 H35           -1.4638     5.9523    -3.0626 H       
  36 H36           -2.2027     6.5309    -1.5466 H       
  37 H37           -2.2445     8.2069    -3.4821 H       
  38 H38           -1.4928     8.8061    -1.9805 H       
  39 H39            1.9559     8.2649    -3.5226 H       
  40 H40            1.2170     8.8435    -2.0066 H       
  41 H41            1.9972     6.5979    -1.5842 H       
  42 H42            1.2501     5.9955    -3.0869 H       
  43 H43            3.0329    15.2487    -5.1964 H       
  44 H44            1.9341    14.8434    -6.5407 H       
  45 H45            0.8605    16.4601    -4.9806 H       
  46 H46            1.0941    15.3132    -3.6356 H       
  47 H47            1.9374    10.7773    -5.1143 H       
  48 H48           -2.3262    10.7171    -5.0734 H       
  49 H49           -2.3676    13.1777    -5.0615 H       
@<TRIPOS>BOND
   1    1    2 1
   2    1    8 3
   3    2    3 ar
   4    2    7 ar
   5    3    4 ar
   6    3   31 1
   7    4    5 ar
   8    4   32 1
   9    5    6 ar
  10    5    9 1
  11    6    7 ar
  12    6   33 1
  13    7   34 1
  14    9   10 2
  15    9   11 2
  16    9   12 am
  17   12   13 1
  18   12   17 1
  19   13   14 1
  20   13   35 1
  21   13   36 1
  22   14   15 1
  23   14   37 1
  24   14   38 1
  25   15   16 1
  26   15   18 am
  27   16   17 1
  28   16   39 1
  29   16   40 1
  30   17   41 1
  31   17   42 1
  32   18   19 2
  33   18   20 2
  34   18   28 1
  35   21   22 1
  36   21   26 1
  37   22   23 ar
  38   22   30 ar
  39   23   24 1
  40   23   27 ar
  41   24   25 1
  42   25   26 1
  43   25   43 1
  44   25   44 1
  45   26   45 1
  46   26   46 1
  47   27   28 ar
  48   27   47 1
  49   28   29 ar
  50   29   30 ar
  51   29   48 1
  52   30   49 1

#	End of record

