#	Name: ASD03180005
#	Creating user name:	WinNT
#	Creation time:	15. 06. 2019 20:33

#	Modifying user name:	WinNT
#	Modification time:	15. 06. 2019 20:33

#	Program:	/corina/corina34_cracker 3.40 0067  02.08.2006

@<TRIPOS>MOLECULE
ASD03180005
  39   41    0    0    0
SMALL
NO_CHARGES


@<TRIPOS>ATOM
   1 C1            -0.0167     1.3793     0.0096 C.ar    
   2 C2             0.0021    -0.0041     0.0020 C.ar    
   3 C3            -1.1855    -0.7111     0.0100 C.ar    
   4 C4            -2.3919    -0.0363     0.0257 C.ar    
   5 C5            -2.4113     1.3460     0.0328 C.ar    
   6 C6            -1.2243     2.0541     0.0306 C.ar    
   7 Cl7            1.4746     2.2680     0.0002 Cl      
   8 S8            -3.9055    -0.9383     0.0359 S.o2    
   9 N9            -4.3108    -1.1977     1.6204 N.am    
  10 O10           -4.8953    -0.0673    -0.4941 O.2     
  11 O11           -3.6159    -2.2143    -0.5183 O.2     
  12 C12           -5.1343    -0.2623     2.3835 C.3     
  13 C13           -4.7244    -0.3122     3.8816 C.3     
  14 S14           -4.4762    -2.1274     4.0772 S.3     
  15 C15           -3.8741    -2.3897     2.3627 C.3     
  16 C16           -4.4890    -3.6343     1.7763 C.ar    
  17 C17           -3.8414    -4.8491     1.9023 C.ar    
  18 C18           -4.4033    -5.9920     1.3647 C.ar    
  19 C19           -5.6188    -5.9188     0.6987 C.ar    
  20 C20           -6.2663    -4.6983     0.5744 C.ar    
  21 C21           -5.7028    -3.5601     1.1180 C.ar    
  22 Br22          -3.5166    -7.6534     1.5361 Br      
  23 O23           -6.1734    -7.0408     0.1688 O.3     
  24 C24           -7.4258    -6.8904    -0.5028 C.3     
  25 H25            0.9445    -0.5314    -0.0105 H       
  26 H26           -1.1710    -1.7910     0.0037 H       
  27 H27           -3.3541     1.8727     0.0443 H       
  28 H28           -1.2396     3.1340     0.0365 H       
  29 H29           -4.9873     0.7474     2.0001 H       
  30 H30           -6.1842    -0.5383     2.2846 H       
  31 H31           -3.7991     0.2361     4.0583 H       
  32 H32           -5.5265     0.0502     4.5247 H       
  33 H33           -2.7865    -2.4613     2.3499 H       
  34 H34           -2.8956    -4.9052     2.4207 H       
  35 H35           -7.2120    -4.6386     0.0563 H       
  36 H36           -6.2070    -2.6098     1.0216 H       
  37 H37           -8.1668    -6.4982     0.1938 H       
  38 H38           -7.3098    -6.1988    -1.3373 H       
  39 H39           -7.7560    -7.8593    -0.8771 H       
@<TRIPOS>BOND
   1    1    2 ar
   2    1    7 1
   3    1    6 ar
   4    2    3 ar
   5    2   25 1
   6    3    4 ar
   7    3   26 1
   8    4    5 ar
   9    4    8 1
  10    5    6 ar
  11    5   27 1
  12    6   28 1
  13    8    9 am
  14    8   10 2
  15    8   11 2
  16    9   12 1
  17    9   15 1
  18   12   13 1
  19   12   29 1
  20   12   30 1
  21   13   14 1
  22   13   31 1
  23   13   32 1
  24   14   15 1
  25   15   16 1
  26   15   33 1
  27   16   17 ar
  28   16   21 ar
  29   17   18 ar
  30   17   34 1
  31   18   19 ar
  32   18   22 1
  33   19   20 ar
  34   19   23 1
  35   20   21 ar
  36   20   35 1
  37   21   36 1
  38   23   24 1
  39   24   37 1
  40   24   38 1
  41   24   39 1

#	End of record

