#	Name: ASD01881123
#	Creating user name:	WinNT
#	Creation time:	15. 06. 2019 19:42

#	Modifying user name:	WinNT
#	Modification time:	15. 06. 2019 19:42

#	Program:	/corina/corina34_cracker 3.40 0067  02.08.2006

@<TRIPOS>MOLECULE
ASD01881123
  55   58    0    0    0
SMALL
NO_CHARGES


@<TRIPOS>ATOM
   1 N1             0.3072     1.3099    -0.8096 N.ar    
   2 C2             0.2694    -0.0050    -0.7372 C.ar    
   3 N3             1.0825    -0.6815     0.0490 N.ar    
   4 C4             1.9771    -0.0595     0.8037 C.ar    
   5 C5             2.0533     1.3189     0.7608 C.ar    
   6 C6             1.1775     2.0050    -0.0828 C.ar    
   7 C7             3.0566     2.0636     1.6033 C.3     
   8 O8             4.2862     2.1835     0.8851 O.3     
   9 C9             5.3023     2.8331     1.5073 C.ar    
  10 C10            6.5272     2.9852     0.8640 C.ar    
  11 C11            7.5546     3.6426     1.4933 C.ar    
  12 C12            7.3795     4.1627     2.7803 C.ar    
  13 C13            6.1466     4.0074     3.4229 C.ar    
  14 C14            5.1168     3.3504     2.7831 C.ar    
  15 C15            8.9700     3.9731     1.0899 C.3     
  16 N16            9.5591     4.6994     2.2207 N.am    
  17 C17            8.6377     4.8062     3.1934 C.2     
  18 O18            8.8176     5.3567     4.2625 O.2     
  19 C19            2.8997    -0.8468     1.6982 C.3     
  20 Cl20           5.9117     4.6457     5.0201 Cl      
  21 N21            1.2147     3.3876    -0.1618 N.3     
  22 C22           -0.0188     3.9792     0.3750 C.3     
  23 C23            0.0946     5.5052     0.3432 C.3     
  24 N24            0.3296     5.9476    -1.0383 N.3     
  25 C25            1.5631     5.3561    -1.5751 C.3     
  26 C26            1.4497     3.8301    -1.5433 C.3     
  27 C27            0.3690     7.4137    -1.1221 C.3     
  28 C28           10.9493     6.6519     1.7347 C.3     
  29 C29           10.9263     5.2224     2.2795 C.3     
  30 H30           -0.4480    -0.5435    -1.3387 H       
  31 H31            2.6718     3.0572     1.8332 H       
  32 H32            3.2292     1.5173     2.5306 H       
  33 H33            6.6692     2.5859    -0.1293 H       
  34 H34            4.1648     3.2308     3.2788 H       
  35 H35            9.5294     3.0568     0.9007 H       
  36 H36            8.9688     4.6025     0.2000 H       
  37 H37            3.8084    -1.0986     1.1515 H       
  38 H38            3.1558    -0.2486     2.5727 H       
  39 H39            2.4022    -1.7625     2.0175 H       
  40 H40           -0.8673     3.6648    -0.2327 H       
  41 H41           -0.1642     3.6467     1.4028 H       
  42 H42           -0.8306     5.9464     0.7140 H       
  43 H43            0.9264     5.8212     0.9727 H       
  44 H44            1.7085     5.6886    -2.6029 H       
  45 H45            2.4115     5.6704    -0.9674 H       
  46 H46            2.3749     3.3889    -1.9141 H       
  47 H47            0.6179     3.5141    -2.1728 H       
  48 H48            1.1741     7.7921    -0.4922 H       
  49 H49            0.5442     7.7141    -2.1551 H       
  50 H50           -0.5820     7.8229    -0.7810 H       
  51 H51           10.6044     6.6522     0.7007 H       
  52 H52           10.2935     7.2808     2.3367 H       
  53 H53           11.9666     7.0410     1.7784 H       
  54 H54           11.2712     5.2220     3.3135 H       
  55 H55           11.5821     4.5935     1.6775 H       
@<TRIPOS>BOND
   1    1    2 ar
   2    1    6 ar
   3    2    3 ar
   4    2   30 1
   5    3    4 ar
   6    4    5 ar
   7    4   19 1
   8    5    6 ar
   9    5    7 1
  10    6   21 1
  11    7    8 1
  12    7   31 1
  13    7   32 1
  14    8    9 1
  15    9   10 ar
  16    9   14 ar
  17   10   11 ar
  18   10   33 1
  19   11   12 ar
  20   11   15 1
  21   12   13 ar
  22   12   17 1
  23   13   14 ar
  24   13   20 1
  25   14   34 1
  26   15   16 1
  27   15   35 1
  28   15   36 1
  29   16   17 am
  30   16   29 1
  31   17   18 2
  32   19   37 1
  33   19   38 1
  34   19   39 1
  35   21   22 1
  36   21   26 1
  37   22   23 1
  38   22   40 1
  39   22   41 1
  40   23   24 1
  41   23   42 1
  42   23   43 1
  43   24   25 1
  44   24   27 1
  45   25   26 1
  46   25   44 1
  47   25   45 1
  48   26   46 1
  49   26   47 1
  50   27   48 1
  51   27   49 1
  52   27   50 1
  53   28   29 1
  54   28   51 1
  55   28   52 1
  56   28   53 1
  57   29   54 1
  58   29   55 1

#	End of record

