#	Name: ASD01410079
#	Creating user name:	WinNT
#	Creation time:	15. 06. 2019 19:16

#	Modifying user name:	WinNT
#	Modification time:	15. 06. 2019 19:16

#	Program:	/corina/corina34_cracker 3.40 0067  02.08.2006

@<TRIPOS>MOLECULE
ASD01410079
  68   71    0    0    0
SMALL
NO_CHARGES


@<TRIPOS>ATOM
   1 C1            -0.0169     1.3981     0.0097 C.ar    
   2 C2             0.0021    -0.0041     0.0020 C.ar    
   3 C3             1.2166    -0.6846    -0.0128 C.ar    
   4 C4             2.4069     0.0404    -0.0203 C.ar    
   5 C5             2.3733     1.4503    -0.0129 C.ar    
   6 C6             1.1460     2.1099     0.0024 C.ar    
   7 C7             3.8206    -0.3357    -0.0360 C.2     
   8 C8             4.5341     0.8169    -0.0371 C.2     
   9 N9             3.6748     1.8918    -0.0234 N.pl3   
  10 C10            6.0103     0.9057    -0.0503 C.ar    
  11 C11            6.6506     1.8036    -0.9053 C.ar    
  12 C12            8.0281     1.8815    -0.9128 C.ar    
  13 C13            8.7743     1.0720    -0.0750 C.ar    
  14 C14            8.1455     0.1794     0.7748 C.ar    
  15 C15            6.7685     0.0961     0.7964 C.ar    
  16 C16            4.3770    -1.7361    -0.0480 C.3     
  17 C17            3.9068    -2.4825     1.2022 C.3     
  18 C18            4.4717    -3.9043     1.1900 C.3     
  19 C19            3.9780    -4.6386    -0.0582 C.3     
  20 C20            4.4482    -3.8922    -1.3083 C.3     
  21 C21            3.8833    -2.4704    -1.2962 C.3     
  22 C22            4.0863     3.2978    -0.0203 C.3     
  23 C23            4.2135     3.7870    -1.4400 C.2     
  24 N24            4.5833     5.0600    -1.6835 N.am    
  25 O25            3.9832     3.0353    -2.3634 O.2     
  26 C26            4.7071     5.5356    -3.0636 C.3     
  27 C27            3.3859     6.0977    -3.5215 C.2     
  28 C28            4.8616     5.9681    -0.5680 C.3     
  29 N29            3.2615     6.5971    -4.7672 N.am    
  30 O30            2.4347     6.1007    -2.7692 O.2     
  31 C31            1.9772     7.1435    -5.2124 C.3     
  32 C32            4.4106     6.5934    -5.6760 C.3     
  33 C33           -1.2656    -0.7585     0.0101 C.2     
  34 O34           -2.4412    -0.1003     0.0249 O.3     
  35 O35           -1.2496    -1.9734     0.0034 O.2     
  36 H36           -0.9626     1.9196     0.0170 H       
  37 H37            1.2361    -1.7644    -0.0181 H       
  38 H38            1.1158     3.1894     0.0078 H       
  39 H39            6.0693     2.4359    -1.5601 H       
  40 H40            8.5249     2.5757    -1.5743 H       
  41 H41            9.8523     1.1368    -0.0846 H       
  42 H42            8.7337    -0.4501     1.4261 H       
  43 H43            6.2789    -0.6008     1.4605 H       
  44 H44            5.4661    -1.6943    -0.0580 H       
  45 H45            4.2585    -1.9594     2.0914 H       
  46 H46            2.8177    -2.5243     1.2122 H       
  47 H47            5.5609    -3.8624     1.1799 H       
  48 H48            4.1368    -4.4360     2.0806 H       
  49 H49            4.3805    -5.6515    -0.0669 H       
  50 H50            2.8889    -4.6804    -0.0482 H       
  51 H51            5.5374    -3.8504    -1.3184 H       
  52 H52            4.0965    -4.4153    -2.1976 H       
  53 H53            2.7941    -2.5123    -1.2861 H       
  54 H54            4.2183    -1.9387    -2.1868 H       
  55 H55            3.3392     3.8938     0.5038 H       
  56 H56            5.0474     3.3940     0.4847 H       
  57 H57            5.4694     6.3131    -3.1130 H       
  58 H58            4.9923     4.7054    -3.7098 H       
  59 H59            5.9168     5.9047    -0.3024 H       
  60 H60            4.6218     6.9897    -0.8628 H       
  61 H61            4.2531     5.6855     0.2910 H       
  62 H62            1.9342     8.2072    -4.9782 H       
  63 H63            1.8765     7.0040    -6.2887 H       
  64 H64            1.1654     6.6258    -4.7014 H       
  65 H65            5.2704     6.1514    -5.1727 H       
  66 H66            4.1695     6.0092    -6.5641 H       
  67 H67            4.6466     7.6169    -5.9673 H       
  68 H68           -3.2452    -0.6377     0.0297 H       
@<TRIPOS>BOND
   1    1    2 ar
   2    1    6 ar
   3    1   36 1
   4    2    3 ar
   5    2   33 1
   6    3    4 ar
   7    3   37 1
   8    4    5 ar
   9    4    7 1
  10    5    6 ar
  11    5    9 1
  12    6   38 1
  13    7    8 2
  14    7   16 1
  15    8    9 1
  16    8   10 1
  17    9   22 1
  18   10   11 ar
  19   10   15 ar
  20   11   12 ar
  21   11   39 1
  22   12   13 ar
  23   12   40 1
  24   13   14 ar
  25   13   41 1
  26   14   15 ar
  27   14   42 1
  28   15   43 1
  29   16   17 1
  30   16   21 1
  31   16   44 1
  32   17   18 1
  33   17   45 1
  34   17   46 1
  35   18   19 1
  36   18   47 1
  37   18   48 1
  38   19   20 1
  39   19   49 1
  40   19   50 1
  41   20   21 1
  42   20   51 1
  43   20   52 1
  44   21   53 1
  45   21   54 1
  46   22   23 1
  47   22   55 1
  48   22   56 1
  49   23   24 am
  50   23   25 2
  51   24   26 1
  52   24   28 1
  53   26   27 1
  54   26   57 1
  55   26   58 1
  56   27   29 am
  57   27   30 2
  58   28   59 1
  59   28   60 1
  60   28   61 1
  61   29   31 1
  62   29   32 1
  63   31   62 1
  64   31   63 1
  65   31   64 1
  66   32   65 1
  67   32   66 1
  68   32   67 1
  69   33   34 1
  70   33   35 2
  71   34   68 1

#	End of record

