#	Name: ASD02190013
#	Creating user name:	WinNT
#	Creation time:	15. 06. 2019 20:18

#	Modifying user name:	WinNT
#	Modification time:	15. 06. 2019 20:18

#	Program:	/corina/corina34_cracker 3.40 0067  02.08.2006

@<TRIPOS>MOLECULE
ASD02190013
  39   41    0    0    0
SMALL
NO_CHARGES


@<TRIPOS>ATOM
   1 C1            -0.0167     1.3275    -0.0898 C.ar    
   2 N2             0.0045     0.0077    -0.1177 N.ar    
   3 C3            -1.1205    -0.6971    -0.0932 C.ar    
   4 N4            -2.3117    -0.1181    -0.0399 N.ar    
   5 C5            -2.4235     1.2042    -0.0089 C.ar    
   6 C6            -1.2491     1.9869    -0.0276 C.ar    
   7 N7            -3.6675     1.8037     0.0461 N.pl3   
   8 C8            -4.8190     1.0279    -0.0527 C.ar    
   9 C9            -5.9681     1.3992     0.6399 C.ar    
  10 C10           -7.1083     0.6348     0.5441 C.ar    
  11 C11           -7.1118    -0.5162    -0.2501 C.ar    
  12 C12           -5.9558    -0.8863    -0.9444 C.ar    
  13 C13           -4.8206    -0.1144    -0.8483 C.ar    
  14 C14           -1.0419    -2.1766    -0.1268 C.ar    
  15 C15            0.1987    -2.8106    -0.1833 C.ar    
  16 C16            0.2656    -4.1885    -0.2140 C.ar    
  17 C17           -0.8952    -4.9408    -0.1892 C.ar    
  18 C18           -2.1289    -4.3175    -0.1331 C.ar    
  19 C19           -2.2082    -2.9404    -0.0962 C.ar    
  20 C20            1.2692     2.1128    -0.1183 C.3     
  21 C21           -8.3313    -1.3378    -0.3547 C.2     
  22 O22           -9.3350    -1.0152     0.2496 O.2     
  23 O23           -8.3330    -2.4467    -1.1204 O.3     
  24 C24           -1.3175     3.4169     0.0049 C.1     
  25 N25           -1.3718     4.5513     0.0307 N.1     
  26 H26           -3.7382     2.7652     0.1536 H       
  27 H27           -5.9646     2.2881     1.2533 H       
  28 H28           -7.9993     0.9232     1.0819 H       
  29 H29           -5.9551    -1.7747    -1.5586 H       
  30 H30           -3.9275    -0.3995    -1.3846 H       
  31 H31            1.1055    -2.2243    -0.2035 H       
  32 H32            1.2259    -4.6807    -0.2578 H       
  33 H33           -0.8379    -6.0190    -0.2140 H       
  34 H34           -3.0317    -4.9100    -0.1139 H       
  35 H35           -3.1719    -2.4548    -0.0525 H       
  36 H36            1.5436     2.3233    -1.1520 H       
  37 H37            1.1340     3.0510     0.4199 H       
  38 H38            2.0601     1.5323     0.3565 H       
  39 H39           -9.1559    -2.9531    -1.1578 H       
@<TRIPOS>BOND
   1    1    2 ar
   2    1   20 1
   3    1    6 ar
   4    2    3 ar
   5    3    4 ar
   6    3   14 1
   7    4    5 ar
   8    5    6 ar
   9    5    7 1
  10    6   24 1
  11    7    8 1
  12    7   26 1
  13    8    9 ar
  14    8   13 ar
  15    9   10 ar
  16    9   27 1
  17   10   11 ar
  18   10   28 1
  19   11   12 ar
  20   11   21 1
  21   12   13 ar
  22   12   29 1
  23   13   30 1
  24   14   15 ar
  25   14   19 ar
  26   15   16 ar
  27   15   31 1
  28   16   17 ar
  29   16   32 1
  30   17   18 ar
  31   17   33 1
  32   18   19 ar
  33   18   34 1
  34   19   35 1
  35   20   36 1
  36   20   37 1
  37   20   38 1
  38   21   22 2
  39   21   23 1
  40   23   39 1
  41   24   25 3

#	End of record

