#	Name: ASD03331842
#	Creating user name:	WinNT
#	Creation time:	15. 06. 2019 20:40

#	Modifying user name:	WinNT
#	Modification time:	15. 06. 2019 20:40

#	Program:	/corina/corina34_cracker 3.40 0067  02.08.2006

@<TRIPOS>MOLECULE
ASD03331842
  48   51    0    0    0
SMALL
NO_CHARGES


@<TRIPOS>ATOM
   1 C1             8.3967    -0.3469     1.1529 C.ar    
   2 C2             8.8949     0.0878     2.3685 C.ar    
   3 C3             8.3552     1.2055     2.9804 C.ar    
   4 C4             7.3175     1.8902     2.3788 C.ar    
   5 C5             6.8161     1.4563     1.1588 C.ar    
   6 C6             7.3594     0.3345     0.5469 C.ar    
   7 N7             5.7640     2.1482     0.5471 N.am    
   8 C8             5.6910     3.4902     0.6485 C.2     
   9 N9             4.7315     4.1649    -0.0153 N.am    
  10 O10            6.4907     4.0922     1.3388 O.2     
  11 C11            4.5949     5.5461     0.1651 C.ar    
  12 C12            3.1936     7.4898     0.3369 C.ar    
  13 C13            3.3326     6.1261     0.1592 C.ar    
  14 C14            5.7193     6.3351     0.3555 C.ar    
  15 C15            5.5784     7.7089     0.5345 C.ar    
  16 C16            4.3079     8.2832     0.5213 C.ar    
  17 C17            6.7766     8.5589     0.7391 C.ar    
  18 C18            6.6453     9.9384     0.9196 C.ar    
  19 C19            7.7912    10.6905     1.1069 C.ar    
  20 N20            8.9690    10.0864     1.1096 N.ar    
  21 C21            9.0639     8.7761     0.9360 C.ar    
  22 N22            7.9928     8.0187     0.7591 N.ar    
  23 Cl23          10.1989    -0.7709     3.1276 Cl      
  24 N24           10.3147     8.1835     0.9457 N.3     
  25 C25           11.3733     9.1870     1.1612 C.3     
  26 C26           12.1722     8.7485     2.4065 C.3     
  27 C27           11.8810     7.2270     2.4907 C.3     
  28 C28           10.4094     7.1631     2.0113 C.3     
  29 H29            8.8224    -1.2171     0.6754 H       
  30 H30            8.7456     1.5425     3.9293 H       
  31 H31            6.8962     2.7620     2.8571 H       
  32 H32            6.9712    -0.0050    -0.4020 H       
  33 H33            5.0876     1.6619     0.0504 H       
  34 H34            4.1355     3.6933    -0.6180 H       
  35 H35            2.2100     7.9360     0.3315 H       
  36 H36            2.4575     5.5099     0.0149 H       
  37 H37            6.7012     5.8855     0.3652 H       
  38 H38            4.1955     9.3484     0.6596 H       
  39 H39            5.6721    10.4065     0.9127 H       
  40 H40            7.7255    11.7591     1.2490 H       
  41 H41           12.0310     9.2245     0.2929 H       
  42 H42           10.9264    10.1662     1.3332 H       
  43 H43           13.2376     8.9297     2.2643 H       
  44 H44           11.8087     9.2603     3.2975 H       
  45 H45           12.5342     6.6668     1.8216 H       
  46 H46           11.9738     6.8678     3.5156 H       
  47 H47            9.7326     7.4061     2.8305 H       
  48 H48           10.1831     6.1747     1.6115 H       
@<TRIPOS>BOND
   1    1    2 ar
   2    1    6 ar
   3    1   29 1
   4    2    3 ar
   5    2   23 1
   6    3    4 ar
   7    3   30 1
   8    4    5 ar
   9    4   31 1
  10    5    6 ar
  11    5    7 1
  12    6   32 1
  13    7    8 am
  14    7   33 1
  15    8    9 am
  16    8   10 2
  17    9   11 1
  18    9   34 1
  19   11   14 ar
  20   11   13 ar
  21   12   13 ar
  22   12   16 ar
  23   12   35 1
  24   13   36 1
  25   14   15 ar
  26   14   37 1
  27   15   16 ar
  28   15   17 1
  29   16   38 1
  30   17   18 ar
  31   17   22 ar
  32   18   19 ar
  33   18   39 1
  34   19   20 ar
  35   19   40 1
  36   20   21 ar
  37   21   22 ar
  38   21   24 1
  39   24   25 1
  40   24   28 1
  41   25   26 1
  42   25   41 1
  43   25   42 1
  44   26   27 1
  45   26   43 1
  46   26   44 1
  47   27   28 1
  48   27   45 1
  49   27   46 1
  50   28   47 1
  51   28   48 1

#	End of record

