#	Name: ASD05273008
#	Creating user name:	WinNT
#	Creation time:	15. 06. 2019 20:58

#	Modifying user name:	WinNT
#	Modification time:	15. 06. 2019 20:58

#	Program:	/corina/corina34_cracker 3.40 0067  02.08.2006

@<TRIPOS>MOLECULE
ASD05273008
   6    5    0    0    0
SMALL
NO_CHARGES


@<TRIPOS>ATOM
   1 C1            -0.0179     1.4678     0.0101 C.3     
   2 C2             0.0021    -0.0041     0.0020 C.1     
   3 N3             0.0175    -1.1399    -0.0042 N.1     
   4 H4             1.0047     1.8451     0.0024 H       
   5 H5            -0.5451     1.8289    -0.8729 H       
   6 H6            -0.5281     1.8193     0.9069 H       
@<TRIPOS>BOND
   1    1    2 1
   2    1    4 1
   3    1    5 1
   4    1    6 1
   5    2    3 3

#	End of record

