#	Name: ASD07930641
#	Creating user name:	WinNT
#	Creation time:	15. 06. 2019 21:12

#	Modifying user name:	WinNT
#	Modification time:	15. 06. 2019 21:12

#	Program:	/corina/corina34_cracker 3.40 0067  02.08.2006

@<TRIPOS>MOLECULE
ASD07930641
  52   54    0    0    0
SMALL
NO_CHARGES


@<TRIPOS>ATOM
   1 C1            -0.0343     1.4581     0.0424 C.3     
   2 N2             0.7953    -0.4134    -2.1302 N.2     
   3 N3            -0.8904    -1.7835    -1.2685 N.pl3   
   4 C4            -0.9150    -2.8271    -0.2382 C.3     
   5 C5            -1.2300    -2.1885     1.1215 C.3     
   6 S6             0.0061    -0.8913     1.4434 S.o2    
   7 N7            -0.0141    -0.0067     0.0315 N.am    
   8 C8            -0.0113    -0.7260    -1.1552 C.2     
   9 C9             0.4500    -3.5154    -0.1755 C.3     
  10 C10           -1.9765    -3.8423    -0.5755 C.ar    
  11 C11           -2.8068    -3.6380    -1.6597 C.ar    
  12 C12           -3.7847    -4.5742    -1.9704 C.ar    
  13 C13           -3.9250    -5.7138    -1.1895 C.ar    
  14 C14           -3.0923    -5.9142    -0.1059 C.ar    
  15 C15           -2.1147    -4.9822     0.1989 C.ar    
  16 O16           -0.4576     0.0117     2.4378 O.2     
  17 O17            1.3140    -1.4440     1.5003 O.2     
  18 N18           -4.6275    -4.3691    -3.0684 N.am    
  19 C19           -5.0471    -5.4194    -3.8014 C.2     
  20 O20           -4.6174    -6.5327    -3.5697 O.2     
  21 C21           -6.0303    -5.2174    -4.8876 C.ar    
  22 C22           -6.4595    -6.3092    -5.6415 C.ar    
  23 F23           -1.3013    -5.1800     1.2593 F       
  24 C24           -7.3796    -6.1079    -6.6550 C.ar    
  25 C25           -7.8429    -4.8152    -6.8829 C.ar    
  26 C26           -7.3692    -3.7731    -6.0895 C.ar    
  27 N27           -6.4995    -3.9988    -5.1313 N.ar    
  28 O28           -8.7454    -4.5730    -7.8672 O.3     
  29 C29           -9.1716    -3.2198    -8.0379 C.3     
  30 C30           -5.9278    -7.6901    -5.3564 C.3     
  31 F31           -6.5076    -8.6050    -6.2419 F       
  32 F32           -4.5386    -7.6981    -5.5210 F       
  33 F33           -6.2438    -8.0493    -4.0417 F       
  34 H34            0.9882     1.8356     0.0394 H       
  35 H35           -0.5582     1.8209    -0.8419 H       
  36 H36           -0.5480     1.8077     0.9380 H       
  37 H37            1.4071     0.3331    -2.0331 H       
  38 H38           -1.4883    -1.8387    -2.0303 H       
  39 H39           -2.2270    -1.7484     1.0987 H       
  40 H40           -1.1800    -2.9460     1.9037 H       
  41 H41            1.2165    -2.7804     0.0704 H       
  42 H42            0.4311    -4.2908     0.5903 H       
  43 H43            0.6749    -3.9652    -1.1426 H       
  44 H44           -2.6962    -2.7508    -2.2655 H       
  45 H45           -4.6849    -6.4428    -1.4291 H       
  46 H46           -3.2011    -6.8004     0.5017 H       
  47 H47           -4.9098    -3.4709    -3.3020 H       
  48 H48           -7.7299    -6.9343    -7.2555 H       
  49 H49           -7.7245    -2.7678    -6.2615 H       
  50 H50           -8.3099    -2.5940    -8.2702 H       
  51 H51           -9.8908    -3.1658    -8.8552 H       
  52 H52           -9.6393    -2.8674    -7.1186 H       
@<TRIPOS>BOND
   1    1    7 1
   2    1   34 1
   3    1   35 1
   4    1   36 1
   5    2    8 2
   6    2   37 1
   7    3    4 1
   8    3    8 1
   9    3   38 1
  10    4    5 1
  11    4    9 1
  12    4   10 1
  13    5    6 1
  14    5   39 1
  15    5   40 1
  16    6    7 am
  17    6   16 2
  18    6   17 2
  19    7    8 1
  20    9   41 1
  21    9   42 1
  22    9   43 1
  23   10   11 ar
  24   10   15 ar
  25   11   12 ar
  26   11   44 1
  27   12   13 ar
  28   12   18 1
  29   13   14 ar
  30   13   45 1
  31   14   15 ar
  32   14   46 1
  33   15   23 1
  34   18   19 am
  35   18   47 1
  36   19   20 2
  37   19   21 1
  38   21   22 ar
  39   21   27 ar
  40   22   24 ar
  41   22   30 1
  42   24   25 ar
  43   24   48 1
  44   25   26 ar
  45   25   28 1
  46   26   27 ar
  47   26   49 1
  48   28   29 1
  49   29   50 1
  50   29   51 1
  51   29   52 1
  52   30   31 1
  53   30   32 1
  54   30   33 1

#	End of record

