#	Name: ASD01880207
#	Creating user name:	WinNT
#	Creation time:	15. 06. 2019 19:40

#	Modifying user name:	WinNT
#	Modification time:	15. 06. 2019 19:40

#	Program:	/corina/corina34_cracker 3.40 0067  02.08.2006

@<TRIPOS>MOLECULE
ASD01880207
  47   51    0    0    0
SMALL
NO_CHARGES


@<TRIPOS>ATOM
   1 C1             0.2591     1.4871    -0.0099 C.2     
   2 C2             0.0204    -0.0005     0.0229 C.3     
   3 N3             0.1840    -0.4925     1.3973 N.3     
   4 C4            -0.1386    -1.9399     1.4866 C.3     
   5 C5            -0.4507    -2.1775     2.9797 C.3     
   6 C6            -0.8785    -0.7990     3.5241 C.3     
   7 C7            -0.7889     0.1555     2.3141 C.3     
   8 C8            -1.8847    -1.9499     3.4620 C.3     
   9 H9            -0.5278    -0.4280     4.4872 H       
  10 H10            0.2185    -2.8327     3.5375 H       
  11 C11           -2.2953    -2.5998     4.7849 C.3     
  12 O12           -3.6883    -2.3771     5.0129 O.3     
  13 C13           -4.2170    -2.8931     6.1535 C.ar    
  14 C14           -5.5626    -2.7146     6.4379 C.ar    
  15 C15           -6.0982    -3.2412     7.5990 C.ar    
  16 C16           -5.2924    -3.9454     8.4760 C.ar    
  17 C17           -3.9506    -4.1237     8.1939 C.ar    
  18 C18           -3.4126    -3.6044     7.0324 C.ar    
  19 N19           -0.6744     2.3931     0.0330 N.2     
  20 C20           -0.1133     3.6267    -0.0154 C.ar    
  21 C21            1.2806     3.4388    -0.0941 C.ar    
  22 N22            1.4832     2.0793    -0.0828 N.pl3   
  23 C23           -0.6111     4.9300    -0.0025 C.ar    
  24 N24            0.2150     5.9534    -0.0632 N.ar    
  25 C25            1.5266     5.8014    -0.1377 C.ar    
  26 C26            2.1008     4.5597    -0.1561 C.ar    
  27 C27            2.7764     1.3940    -0.1467 C.3     
  28 Cl28          -7.7823    -3.0181     7.9567 Cl      
  29 H29           -0.9916    -0.2138    -0.3214 H       
  30 H30            0.7384    -0.4981    -0.6291 H       
  31 H31           -1.0096    -2.1737     0.8743 H       
  32 H32            0.7171    -2.5399     1.1769 H       
  33 H33           -0.4229     1.1332     2.6275 H       
  34 H34           -1.7616     0.2496     1.8313 H       
  35 H35           -2.6665    -1.8934     2.7045 H       
  36 H36           -2.1014    -3.6714     4.7389 H       
  37 H37           -1.7191    -2.1609     5.5995 H       
  38 H38           -6.1915    -2.1646     5.7535 H       
  39 H39           -5.7120    -4.3561     9.3824 H       
  40 H40           -3.3234    -4.6732     8.8803 H       
  41 H41           -2.3645    -3.7442     6.8129 H       
  42 H42           -1.6761     5.0997     0.0570 H       
  43 H43            2.1581     6.6762    -0.1856 H       
  44 H44            3.1737     4.4520    -0.2165 H       
  45 H45            3.1950     1.3136     0.8565 H       
  46 H46            2.6388     0.3965    -0.5640 H       
  47 H47            3.4577     1.9620    -0.7802 H       
@<TRIPOS>BOND
   1    1    2 1
   2    1   19 2
   3    1   22 1
   4    2    3 1
   5    2   29 1
   6    2   30 1
   7    3    4 1
   8    3    7 1
   9    4    5 1
  10    4   31 1
  11    4   32 1
  12    5    6 1
  13    5   10 1
  14    5    8 1
  15    6    7 1
  16    6    9 1
  17    6    8 1
  18    7   33 1
  19    7   34 1
  20    8   11 1
  21    8   35 1
  22   11   12 1
  23   11   36 1
  24   11   37 1
  25   12   13 1
  26   13   14 ar
  27   13   18 ar
  28   14   15 ar
  29   14   38 1
  30   15   16 ar
  31   15   28 1
  32   16   17 ar
  33   16   39 1
  34   17   18 ar
  35   17   40 1
  36   18   41 1
  37   19   20 1
  38   20   21 ar
  39   20   23 ar
  40   21   22 1
  41   21   26 ar
  42   22   27 1
  43   23   24 ar
  44   23   42 1
  45   24   25 ar
  46   25   26 ar
  47   25   43 1
  48   26   44 1
  49   27   45 1
  50   27   46 1
  51   27   47 1

#	End of record

