#	Name: ASD01903331
#	Creating user name:	WinNT
#	Creation time:	15. 06. 2019 19:54

#	Modifying user name:	WinNT
#	Modification time:	15. 06. 2019 19:54

#	Program:	/corina/corina34_cracker 3.40 0067  02.08.2006

@<TRIPOS>MOLECULE
ASD01903331
  36   39    0    0    0
SMALL
NO_CHARGES


@<TRIPOS>ATOM
   1 N1            -0.0111     0.9658     0.0074 N.pl3   
   2 H2             0.0454    -0.0025     0.0035 H       
   3 C3             1.1476     1.7282    -0.0089 C.2     
   4 C4            -1.2545     1.5902     0.0234 C.ar    
   5 S5             2.7863     1.0910     0.0955 S.3     
   6 C6             3.4308     2.7215     0.0076 C.2     
   7 C7             2.3850     3.5906    -0.1135 C.2     
   8 N8             1.1928     3.0211    -0.1089 N.2     
   9 N9            -1.3255     2.9084     0.1244 N.ar    
  10 C10           -2.4841     3.5396     0.1427 C.ar    
  11 C11           -3.6720     2.8416     0.0565 C.ar    
  12 C12           -3.6413     1.4573    -0.0507 C.ar    
  13 C13           -2.4118     0.8241    -0.0727 C.ar    
  14 C14            4.8746     3.1457     0.0752 C.3     
  15 C15            5.1252     4.4084    -0.7509 C.3     
  16 C16            4.0155     5.4055    -0.5545 C.2     
  17 C17            2.7192     5.0379    -0.2774 C.2     
  18 N18            4.0398     6.7443    -0.6063 N.pl3   
  19 N19            2.7348     7.2157    -0.3894 N.2     
  20 C20            1.9435     6.1855    -0.1950 C.2     
  21 C21            5.2479     3.4196     1.5335 C.3     
  22 C22            5.7542     2.0144    -0.4608 C.3     
  23 H23           -2.5034     4.6161     0.2266 H       
  24 H24           -4.6156     3.3667     0.0727 H       
  25 H25           -4.5567     0.8884    -0.1196 H       
  26 H26           -2.3513    -0.2510    -0.1555 H       
  27 H27            6.0693     4.8573    -0.4423 H       
  28 H28            5.1842     4.1408    -1.8059 H       
  29 H29            4.8235     7.2931    -0.7661 H       
  30 H30            0.8810     6.2246    -0.0053 H       
  31 H31            5.1040     2.5133     2.1217 H       
  32 H32            6.2921     3.7272     1.5896 H       
  33 H33            4.6136     4.2134     1.9280 H       
  34 H34            5.4824     1.8016    -1.4947 H       
  35 H35            6.8009     2.3149    -0.4146 H       
  36 H36            5.6058     1.1206     0.1452 H       
@<TRIPOS>BOND
   1    1    2 1
   2    1    3 1
   3    1    4 1
   4    3    5 1
   5    3    8 2
   6    4    9 ar
   7    4   13 ar
   8    5    6 1
   9    6    7 2
  10    6   14 1
  11    7    8 1
  12    7   17 1
  13    9   10 ar
  14   10   11 ar
  15   10   23 1
  16   11   12 ar
  17   11   24 1
  18   12   13 ar
  19   12   25 1
  20   13   26 1
  21   14   15 1
  22   14   21 1
  23   14   22 1
  24   15   16 1
  25   15   27 1
  26   15   28 1
  27   16   17 2
  28   16   18 1
  29   17   20 1
  30   18   19 1
  31   18   29 1
  32   19   20 2
  33   20   30 1
  34   21   31 1
  35   21   32 1
  36   21   33 1
  37   22   34 1
  38   22   35 1
  39   22   36 1

#	End of record

