#	Name: ASD01910331
#	Creating user name:	WinNT
#	Creation time:	15. 06. 2019 19:55

#	Modifying user name:	WinNT
#	Modification time:	15. 06. 2019 19:55

#	Program:	/corina/corina34_cracker 3.40 0067  02.08.2006

@<TRIPOS>MOLECULE
ASD01910331
  41   43    0    0    0
SMALL
NO_CHARGES


@<TRIPOS>ATOM
   1 C1             0.0637     1.2002    -0.3509 C.ar    
   2 C2             0.0443    -0.0745     0.1979 C.ar    
   3 C3             1.2170    -0.6218     0.6879 C.ar    
   4 N4             2.3486     0.0493     0.6405 N.ar    
   5 C5             2.4116     1.2728     0.1231 C.ar    
   6 C6             1.2653     1.8851    -0.3894 C.ar    
   7 C7             3.6632     1.9678     0.0917 C.1     
   8 C8             4.6893     2.5376     0.0659 C.1     
   9 C9             5.9410     3.2326     0.0344 C.ar    
  10 C10            6.0132     4.5200    -0.5086 C.ar    
  11 C11            7.2074     5.1825    -0.5379 C.ar    
  12 C12            8.3571     4.5745    -0.0259 C.ar    
  13 C13            8.2858     3.2881     0.5163 C.ar    
  14 C14            7.0911     2.6268     0.5519 C.ar    
  15 C15            9.6479     5.2912    -0.0584 C.2     
  16 O16            9.7242     6.4257     0.3719 O.2     
  17 N17           10.7413     4.6876    -0.5649 N.am    
  18 C18           12.0124     5.4155    -0.6803 C.3     
  19 C19           12.5094     5.3137    -2.1258 C.3     
  20 C20           12.5900     3.8400    -2.5307 C.3     
  21 C21           11.1969     3.2111    -2.4535 C.3     
  22 C22           10.6865     3.2873    -1.0065 C.3     
  23 O23           13.0840     3.7400    -3.8679 O.3     
  24 H24           -0.8383     1.6458    -0.7435 H       
  25 H25           -0.8782    -0.6343     0.2425 H       
  26 H26            1.2036    -1.6134     1.1157 H       
  27 H27            1.3163     2.8786    -0.8098 H       
  28 H28            5.1251     4.9897    -0.9049 H       
  29 H29            7.2633     6.1763    -0.9570 H       
  30 H30            9.1747     2.8187     0.9114 H       
  31 H31            7.0361     1.6329     0.9709 H       
  32 H32           11.8588     6.4627    -0.4197 H       
  33 H33           12.7487     4.9739    -0.0088 H       
  34 H34           11.8166     5.8350    -2.7863 H       
  35 H35           13.4976     5.7669    -2.2035 H       
  36 H36           13.2639     3.3140    -1.8545 H       
  37 H37           10.5165     3.7522    -3.1109 H       
  38 H38           11.2510     2.1677    -2.7644 H       
  39 H39           11.3156     2.6711    -0.3641 H       
  40 H40            9.6571     2.9318    -0.9629 H       
  41 H41           13.1614     2.8321    -4.1917 H       
@<TRIPOS>BOND
   1    1    2 ar
   2    1    6 ar
   3    1   24 1
   4    2    3 ar
   5    2   25 1
   6    3    4 ar
   7    3   26 1
   8    4    5 ar
   9    5    6 ar
  10    5    7 1
  11    6   27 1
  12    7    8 3
  13    8    9 1
  14    9   10 ar
  15    9   14 ar
  16   10   11 ar
  17   10   28 1
  18   11   12 ar
  19   11   29 1
  20   12   13 ar
  21   12   15 1
  22   13   14 ar
  23   13   30 1
  24   14   31 1
  25   15   16 2
  26   15   17 am
  27   17   18 1
  28   17   22 1
  29   18   19 1
  30   18   32 1
  31   18   33 1
  32   19   20 1
  33   19   34 1
  34   19   35 1
  35   20   21 1
  36   20   23 1
  37   20   36 1
  38   21   22 1
  39   21   37 1
  40   21   38 1
  41   22   39 1
  42   22   40 1
  43   23   41 1

#	End of record

