#	Name: ASD05430267
#	Creating user name:	WinNT
#	Creation time:	15. 06. 2019 21:00

#	Modifying user name:	WinNT
#	Modification time:	15. 06. 2019 21:00

#	Program:	/corina/corina34_cracker 3.40 0067  02.08.2006

@<TRIPOS>MOLECULE
ASD05430267
  69   74    0    0    0
SMALL
NO_CHARGES


@<TRIPOS>ATOM
   1 C1             0.0551     1.1852     0.3889 C.ar    
   2 C2             0.0203    -0.0139    -0.3219 C.ar    
   3 C3             1.1709    -0.4978    -0.9308 C.ar    
   4 C4             2.3527     0.2044    -0.8351 C.ar    
   5 C5             2.3953     1.4081    -0.1238 C.ar    
   6 C6             1.2367     1.8954     0.4889 C.ar    
   7 C7             4.8690    -0.0050     0.2172 C.3     
   8 C8             4.8285     1.4999     0.0679 C.2     
   9 C9             3.6566     2.1594    -0.0200 C.2     
  10 C10            6.2167    -0.4363     0.7865 C.3     
  11 C11            6.8766     0.5921     1.7027 C.3     
  12 N12            7.0879     1.8306     0.9503 N.pl3   
  13 C13            6.1105     2.2195     0.0222 C.2     
  14 N14           -1.1792    -0.7332    -0.4217 N.pl3   
  15 C15           -1.7429    -1.2218    -1.5716 C.2     
  16 C16           -2.8828    -1.8434    -1.2137 C.2     
  17 N17           -3.0161    -1.7401     0.1168 N.2     
  18 C18           -1.9989    -1.0822     0.6034 C.2     
  19 C19           -3.8427    -2.5355    -2.1469 C.3     
  20 O20           -1.0745     1.6587     0.9789 O.3     
  21 C21           -0.9661     2.8929     1.6909 C.3     
  22 C22            8.2630     2.6739     1.1617 C.3     
  23 C23            8.7546     3.1850    -0.1976 C.3     
  24 N24            7.6219     3.7233    -0.9544 N.pl3   
  25 N25            6.3513     3.1457    -0.8507 N.2     
  26 C26            7.8946     3.8432     2.0380 C.ar    
  27 C27            8.7705     4.2767     3.0153 C.ar    
  28 C28            7.2184     5.9916     3.6469 C.ar    
  29 C29            6.3444     5.5602     2.6640 C.ar    
  30 C30            6.6836     4.4850     1.8600 C.ar    
  31 C31            8.4333     5.3514     3.8208 C.ar    
  32 C32            7.8215     4.8803    -1.8306 C.3     
  33 C33            8.2034     4.3990    -3.2319 C.3     
  34 C34            6.2041    -1.8557     1.3764 C.3     
  35 O35            7.4634    -2.0261     0.6940 O.3     
  36 C36            7.1733    -1.0003    -0.2775 C.3     
  37 F37            9.2895     5.7746     4.7763 F       
  38 F38            5.1583     6.1841     2.4931 F       
  39 H39            1.1394    -1.4270    -1.4803 H       
  40 H40            3.2460    -0.1747    -1.3091 H       
  41 H41            1.2651     2.8243     1.0391 H       
  42 H42            4.0732    -0.3233     0.8907 H       
  43 H43            4.7229    -0.4694    -0.7580 H       
  44 H44            3.6429     3.2393    -0.0142 H       
  45 H45            6.2284     0.7896     2.5564 H       
  46 H46            7.8355     0.2085     2.0512 H       
  47 H47           -1.3489    -1.1262    -2.5727 H       
  48 H48           -1.8398    -0.8480     1.6456 H       
  49 H49           -3.5566    -3.5821    -2.2518 H       
  50 H50           -4.8524    -2.4737    -1.7410 H       
  51 H51           -3.8132    -2.0513    -3.1230 H       
  52 H52           -1.9366     3.1561     2.1116 H       
  53 H53           -0.2384     2.7856     2.4953 H       
  54 H54           -0.6406     3.6784     1.0089 H       
  55 H55            9.0503     2.0905     1.6392 H       
  56 H56            9.4953     3.9698    -0.0446 H       
  57 H57            9.2054     2.3630    -0.7536 H       
  58 H58            9.7182     3.7768     3.1510 H       
  59 H59            6.9547     6.8301     4.2744 H       
  60 H60            6.0017     4.1480     1.0933 H       
  61 H61            6.8994     5.4590    -1.8839 H       
  62 H62            8.6201     5.5053    -1.4309 H       
  63 H63            8.3518     5.2599    -3.8838 H       
  64 H64            9.1255     3.8203    -3.1786 H       
  65 H65            7.4047     3.7741    -3.6316 H       
  66 H66            6.2839    -1.8825     2.4631 H       
  67 H67            5.4039    -2.4869     0.9900 H       
  68 H68            6.6708    -1.3689    -1.1718 H       
  69 H69            8.0197    -0.3502    -0.4989 H       
@<TRIPOS>BOND
   1    1    2 ar
   2    1    6 ar
   3    1   20 1
   4    2    3 ar
   5    2   14 1
   6    3    4 ar
   7    3   39 1
   8    4    5 ar
   9    4   40 1
  10    5    6 ar
  11    5    9 1
  12    6   41 1
  13    7    8 1
  14    7   10 1
  15    7   42 1
  16    7   43 1
  17    8    9 2
  18    8   13 1
  19    9   44 1
  20   10   11 1
  21   10   34 1
  22   10   36 1
  23   11   12 1
  24   11   45 1
  25   11   46 1
  26   12   13 1
  27   12   22 1
  28   13   25 2
  29   14   15 1
  30   14   18 1
  31   15   16 2
  32   15   47 1
  33   16   17 1
  34   16   19 1
  35   17   18 2
  36   18   48 1
  37   19   49 1
  38   19   50 1
  39   19   51 1
  40   20   21 1
  41   21   52 1
  42   21   53 1
  43   21   54 1
  44   22   23 1
  45   22   26 1
  46   22   55 1
  47   23   24 1
  48   23   56 1
  49   23   57 1
  50   24   25 1
  51   24   32 1
  52   26   27 ar
  53   26   30 ar
  54   27   31 ar
  55   27   58 1
  56   28   29 ar
  57   28   31 ar
  58   28   59 1
  59   29   30 ar
  60   29   38 1
  61   30   60 1
  62   31   37 1
  63   32   33 1
  64   32   61 1
  65   32   62 1
  66   33   63 1
  67   33   64 1
  68   33   65 1
  69   34   35 1
  70   34   66 1
  71   34   67 1
  72   35   36 1
  73   36   68 1
  74   36   69 1

#	End of record

