#	Name: ASD04882555
#	Creating user name:	WinNT
#	Creation time:	15. 06. 2019 20:55

#	Modifying user name:	WinNT
#	Modification time:	15. 06. 2019 20:55

#	Program:	/corina/corina34_cracker 3.40 0067  02.08.2006

@<TRIPOS>MOLECULE
ASD04882555
  78   83    0    0    0
SMALL
NO_CHARGES


@<TRIPOS>ATOM
   1 C1            -0.0215     1.4012    -0.0092 C.ar    
   2 C2            -0.0115     0.0036    -0.0052 C.ar    
   3 C3            -1.2094    -0.7019    -0.0160 C.ar    
   4 C4            -2.4097    -0.0268    -0.0310 C.ar    
   5 C5            -2.4267     1.3708    -0.0350 C.ar    
   6 C6            -1.2239     2.0825    -0.0185 C.ar    
   7 N7             1.1998    -0.6830     0.0090 N.3     
   8 C8             1.3075    -1.5362     1.2007 C.3     
   9 C9             1.3717    -1.4731    -1.2181 C.3     
  10 C10            2.7456    -2.1474    -1.1992 C.3     
  11 N11            2.8533    -3.0005    -0.0075 N.3     
  12 C12            2.6814    -2.2105     1.2196 C.3     
  13 C13           -3.7126     2.0937    -0.0516 C.2     
  14 O14           -3.7265     3.3096    -0.0551 O.2     
  15 N15           -4.8720     1.4065    -0.0628 N.am    
  16 N16            1.1866     2.1110     0.0021 N.am    
  17 C17            4.0684    -3.6893     0.0068 C.ar    
  18 C18            4.0811    -5.0782     0.0108 C.ar    
  19 C19            5.2845    -5.7562     0.0244 C.ar    
  20 C20            6.4754    -5.0538     0.0346 C.ar    
  21 C21            6.4663    -3.6708     0.0307 C.ar    
  22 C22            5.2669    -2.9867     0.0112 C.ar    
  23 C23           -6.1489     2.1244    -0.0793 C.3     
  24 C24            2.7836    -5.8445     0.0007 C.3     
  25 C25            1.2296     3.3600     0.5068 C.2     
  26 C26            2.5162     4.0732     0.6000 C.2     
  27 O27            0.2069     3.8985     0.8853 O.2     
  28 N28            3.7329     3.5991     0.2178 N.2     
  29 C29            4.6244     4.5145     0.4539 C.2     
  30 O30            4.0245     5.5887     0.9859 O.3     
  31 C31            2.7098     5.3324     1.0790 C.2     
  32 C32            6.0998     4.3882     0.1743 C.3     
  33 C33            6.7243     5.3956    -0.7932 C.3     
  34 C34            7.0165     5.4920     0.7055 C.3     
  35 C35           -7.2272     1.2330    -0.6987 C.3     
  36 C36           -6.5481     2.4879     1.3523 C.3     
  37 C37           -6.6920     1.2102     2.1817 C.3     
  38 C38           -7.7703     0.3189     1.5623 C.3     
  39 C39           -7.3711    -0.0446     0.1307 C.3     
  40 O40           -6.8544     0.8935    -2.0357 O.3     
  41 O41           -8.3782    -0.8771    -0.4478 O.3     
  42 H42           -1.1986    -1.7819    -0.0129 H       
  43 H43           -3.3385    -0.5778    -0.0400 H       
  44 H44           -1.2340     3.1625    -0.0213 H       
  45 H45            1.1893    -0.9264     2.0964 H       
  46 H46            0.5287    -2.2984     1.1739 H       
  47 H47            0.5937    -2.2346    -1.2724 H       
  48 H48            1.3004    -0.8173    -2.0858 H       
  49 H49            2.8638    -2.7572    -2.0949 H       
  50 H50            3.5244    -1.3852    -1.1724 H       
  51 H51            3.4594    -1.4490     1.2739 H       
  52 H52            2.7527    -2.8662     2.0873 H       
  53 H53           -4.8609     0.4366    -0.0600 H       
  54 H54            1.9919     1.7035    -0.3534 H       
  55 H55            5.2951    -6.8361     0.0275 H       
  56 H56            7.4149    -5.5864     0.0460 H       
  57 H57            7.3983    -3.1252     0.0390 H       
  58 H58            5.2605    -1.9068     0.0078 H       
  59 H59           -6.0464     3.0346    -0.6701 H       
  60 H60            2.4804    -6.0321    -1.0294 H       
  61 H61            2.9184    -6.7941     0.5184 H       
  62 H62            2.0134    -5.2615     0.5057 H       
  63 H63            1.9513     5.9965     1.4664 H       
  64 H64            6.4908     3.3708     0.1632 H       
  65 H65            7.5264     5.0410    -1.4406 H       
  66 H66            6.0679     6.1497    -1.2275 H       
  67 H67            6.5524     6.3095     1.2572 H       
  68 H68            8.0108     5.2009     1.0442 H       
  69 H69           -8.1773     1.7672    -0.7109 H       
  70 H70           -5.7799     3.1229     1.7936 H       
  71 H71           -7.4982     3.0220     1.3401 H       
  72 H72           -5.7419     0.6761     2.1939 H       
  73 H73           -6.9764     1.4692     3.2015 H       
  74 H74           -7.8728    -0.5913     2.1531 H       
  75 H75           -8.7203     0.8530     1.5500 H       
  76 H76           -6.4210    -0.5788     0.1429 H       
  77 H77           -7.4936     0.3284    -2.4909 H       
  78 H78           -8.5234    -1.7068     0.0273 H       
@<TRIPOS>BOND
   1    1    2 ar
   2    1   16 1
   3    1    6 ar
   4    2    3 ar
   5    2    7 1
   6    3    4 ar
   7    3   42 1
   8    4    5 ar
   9    4   43 1
  10    5    6 ar
  11    5   13 1
  12    6   44 1
  13    7    8 1
  14    7    9 1
  15    8   12 1
  16    8   45 1
  17    8   46 1
  18    9   10 1
  19    9   47 1
  20    9   48 1
  21   10   11 1
  22   10   49 1
  23   10   50 1
  24   11   12 1
  25   11   17 1
  26   12   51 1
  27   12   52 1
  28   13   14 2
  29   13   15 am
  30   15   23 1
  31   15   53 1
  32   16   25 am
  33   16   54 1
  34   17   18 ar
  35   17   22 ar
  36   18   19 ar
  37   18   24 1
  38   19   20 ar
  39   19   55 1
  40   20   21 ar
  41   20   56 1
  42   21   22 ar
  43   21   57 1
  44   22   58 1
  45   23   35 1
  46   23   36 1
  47   23   59 1
  48   24   60 1
  49   24   61 1
  50   24   62 1
  51   25   26 1
  52   25   27 2
  53   26   28 1
  54   26   31 2
  55   28   29 2
  56   29   30 1
  57   29   32 1
  58   30   31 1
  59   31   63 1
  60   32   33 1
  61   32   34 1
  62   32   64 1
  63   33   34 1
  64   33   65 1
  65   33   66 1
  66   34   67 1
  67   34   68 1
  68   35   40 1
  69   35   39 1
  70   35   69 1
  71   36   37 1
  72   36   70 1
  73   36   71 1
  74   37   38 1
  75   37   72 1
  76   37   73 1
  77   38   39 1
  78   38   74 1
  79   38   75 1
  80   39   41 1
  81   39   76 1
  82   40   77 1
  83   41   78 1

#	End of record

