#	Name: ASD05380238
#	Creating user name:	WinNT
#	Creation time:	15. 06. 2019 20:59

#	Modifying user name:	WinNT
#	Modification time:	15. 06. 2019 20:59

#	Program:	/corina/corina34_cracker 3.40 0067  02.08.2006

@<TRIPOS>MOLECULE
ASD05380238
  58   60    0    0    0
SMALL
NO_CHARGES


@<TRIPOS>ATOM
   1 C1            -0.0920    -0.2353     0.6322 C.ar    
   2 C2            -0.2852    -1.4355    -0.0385 C.ar    
   3 C3             0.7841    -2.1440    -0.5394 C.ar    
   4 C4             2.0795    -1.6511    -0.3720 C.ar    
   5 C5             2.2725    -0.4294     0.3110 C.ar    
   6 C6             1.1770     0.2717     0.8102 C.ar    
   7 N7             3.1611    -2.3166    -0.8489 N.2     
   8 C8             4.3657    -1.8583    -0.6927 C.2     
   9 N9             4.6445    -0.6923    -0.0493 N.am    
  10 C10            3.6487     0.0622     0.4711 C.2     
  11 C11            5.5136    -2.6586    -1.2522 C.3     
  12 C12            6.4913     0.6699    -0.8061 C.ar    
  13 C13            5.9738    -0.2694     0.0761 C.ar    
  14 C14            7.8024     1.0852    -0.6795 C.ar    
  15 C15            8.5997     0.5664     0.3241 C.ar    
  16 C16            8.0872    -0.3688     1.2045 C.ar    
  17 C17            6.7769    -0.7882     1.0832 C.ar    
  18 N18            5.2597    -4.0904    -1.0439 N.3     
  19 O19            3.8835     1.1076     1.0490 O.2     
  20 C20            5.6493    -2.3773    -2.7499 C.3     
  21 C21            1.3781     1.5754     1.5388 C.3     
  22 C22            6.8889    -3.0913    -3.2927 C.3     
  23 C23            7.0246    -2.8100    -4.7905 C.3     
  24 N24            8.2147    -3.4956    -5.3116 N.3     
  25 C25            8.2496    -3.4475    -6.7794 C.3     
  26 C26            7.2431    -4.4506    -7.3466 C.3     
  27 C27            9.4423    -2.9292    -4.7370 C.3     
  28 C28           10.6107    -3.8847    -4.9876 C.3     
  29 H29           -0.9438     0.3079     1.0139 H       
  30 H30           -1.2866    -1.8185    -0.1686 H       
  31 H31            0.6214    -3.0767    -1.0591 H       
  32 H32            6.4356    -2.3754    -0.7443 H       
  33 H33            5.8705     1.0718    -1.5931 H       
  34 H34            8.2054     1.8157    -1.3653 H       
  35 H35            9.6249     0.8922     0.4206 H       
  36 H36            8.7126    -0.7724     1.9871 H       
  37 H37            6.3772    -1.5186     1.7711 H       
  38 H38            5.2302    -4.3130    -0.0602 H       
  39 H39            4.4097    -4.3778    -1.5053 H       
  40 H40            4.7633    -2.7417    -3.2698 H       
  41 H41            5.7489    -1.3038    -2.9105 H       
  42 H42            1.4305     2.3907     0.8172 H       
  43 H43            0.5427     1.7446     2.2182 H       
  44 H44            2.3067     1.5339     2.1082 H       
  45 H45            7.7749    -2.7269    -2.7728 H       
  46 H46            6.7893    -4.1648    -3.1322 H       
  47 H47            6.1386    -3.1745    -5.3103 H       
  48 H48            7.1242    -1.7365    -4.9510 H       
  49 H49            7.9911    -2.4436    -7.1162 H       
  50 H50            9.2509    -3.7010    -7.1276 H       
  51 H51            7.2523    -4.3984    -8.4353 H       
  52 H52            7.5149    -5.4572    -7.0288 H       
  53 H53            6.2451    -4.2108    -6.9798 H       
  54 H54            9.6526    -1.9676    -5.2051 H       
  55 H55            9.3106    -2.7900    -3.6640 H       
  56 H56           10.8053    -3.9478    -6.0583 H       
  57 H57           11.4997    -3.5131    -4.4781 H       
  58 H58           10.3596    -4.8740    -4.6051 H       
@<TRIPOS>BOND
   1    1    2 ar
   2    1    6 ar
   3    1   29 1
   4    2    3 ar
   5    2   30 1
   6    3    4 ar
   7    3   31 1
   8    4    5 ar
   9    4    7 1
  10    5    6 ar
  11    5   10 1
  12    6   21 1
  13    7    8 2
  14    8    9 1
  15    8   11 1
  16    9   10 am
  17    9   13 1
  18   10   19 2
  19   11   18 1
  20   11   20 1
  21   11   32 1
  22   12   13 ar
  23   12   14 ar
  24   12   33 1
  25   13   17 ar
  26   14   15 ar
  27   14   34 1
  28   15   16 ar
  29   15   35 1
  30   16   17 ar
  31   16   36 1
  32   17   37 1
  33   18   38 1
  34   18   39 1
  35   20   22 1
  36   20   40 1
  37   20   41 1
  38   21   42 1
  39   21   43 1
  40   21   44 1
  41   22   23 1
  42   22   45 1
  43   22   46 1
  44   23   24 1
  45   23   47 1
  46   23   48 1
  47   24   25 1
  48   24   27 1
  49   25   26 1
  50   25   49 1
  51   25   50 1
  52   26   51 1
  53   26   52 1
  54   26   53 1
  55   27   28 1
  56   27   54 1
  57   27   55 1
  58   28   56 1
  59   28   57 1
  60   28   58 1

#	End of record

