#	Name: ASD01670011
#	Creating user name:	WinNT
#	Creation time:	15. 06. 2019 19:22

#	Modifying user name:	WinNT
#	Modification time:	15. 06. 2019 19:22

#	Program:	/corina/corina34_cracker 3.40 0067  02.08.2006

@<TRIPOS>MOLECULE
ASD01670011
  32   34    0    0    0
SMALL
NO_CHARGES


@<TRIPOS>ATOM
   1 C1             2.2079    -0.1651     2.9739 C.ar    
   2 C2             0.8640     0.1089     2.7894 C.ar    
   3 C3             3.1588     0.4934     2.2228 C.ar    
   4 C4             3.8788    -0.7748     0.0554 C.ar    
   5 C5             0.4636     1.0440     1.8511 C.ar    
   6 C6             3.9868    -2.1389     0.2331 C.ar    
   7 C7             2.7622     1.4396     1.2735 C.ar    
   8 C8             4.9902     0.0473     0.2419 C.ar    
   9 C9             6.2272    -0.5248     0.6137 C.ar    
  10 C10            1.4029     1.7102     1.0923 C.ar    
  11 C11            5.1974    -2.7106     0.5984 C.ar    
  12 C12            6.3210    -1.9097     0.7902 C.ar    
  13 C13            3.7717     2.1476     0.4675 C.2     
  14 C14            4.8750     1.5006     0.0520 C.2     
  15 C15            7.4078     0.3289     0.8135 C.2     
  16 C16            6.9845    -4.0395     0.7620 C.3     
  17 O17            7.6425     0.7944     1.9115 O.2     
  18 O18            8.2297     0.5954    -0.2213 O.3     
  19 O19            5.5465    -4.0107     0.8286 O.3     
  20 O20            7.3707    -2.7048     1.1390 O.3     
  21 H21            2.5130    -0.8931     3.7109 H       
  22 H22            0.1238    -0.4100     3.3805 H       
  23 H23            4.2072     0.2789     2.3681 H       
  24 H24            2.9320    -0.3428    -0.2332 H       
  25 H25           -0.5870     1.2522     1.7125 H       
  26 H26            3.1209    -2.7675     0.0869 H       
  27 H27            1.0889     2.4392     0.3599 H       
  28 H28            3.6259     3.1864     0.2104 H       
  29 H29            5.6764     2.0485    -0.4212 H       
  30 H30            7.3861    -4.7678     1.4666 H       
  31 H31            7.3166    -4.2624    -0.2519 H       
  32 H32            8.9928     1.1614    -0.0413 H       
@<TRIPOS>BOND
   1    1    2 ar
   2    1    3 ar
   3    1   21 1
   4    2    5 ar
   5    2   22 1
   6    3    7 ar
   7    3   23 1
   8    4    6 ar
   9    4    8 ar
  10    4   24 1
  11    5   10 ar
  12    5   25 1
  13    6   11 ar
  14    6   26 1
  15    7   10 ar
  16    7   13 1
  17    8    9 ar
  18    8   14 1
  19    9   12 ar
  20    9   15 1
  21   10   27 1
  22   11   12 ar
  23   11   19 1
  24   12   20 1
  25   13   14 2
  26   13   28 1
  27   14   29 1
  28   15   17 2
  29   15   18 1
  30   16   19 1
  31   16   20 1
  32   16   30 1
  33   16   31 1
  34   18   32 1

#	End of record

