#	Name: ASD01911981
#	Creating user name:	WinNT
#	Creation time:	15. 06. 2019 19:58

#	Modifying user name:	WinNT
#	Modification time:	15. 06. 2019 19:58

#	Program:	/corina/corina34_cracker 3.40 0067  02.08.2006

@<TRIPOS>MOLECULE
ASD01911981
  39   41    0    0    0
SMALL
NO_CHARGES


@<TRIPOS>ATOM
   1 C1            -1.5210     1.2558     1.6006 C.ar    
   2 C2            -1.4171    -0.1288     1.4894 C.ar    
   3 C3            -1.5779    -0.8965     2.6405 C.ar    
   4 N4            -1.8216    -0.2873     3.7888 N.ar    
   5 C5            -1.9126     1.0260     3.8523 C.ar    
   6 N6            -1.7668     1.7874     2.7864 N.ar    
   7 N7            -1.1588    -0.7319     0.2553 N.pl3   
   8 C8            -1.0437    -2.1220     0.1673 C.ar    
   9 C9             0.3018    -4.0752    -0.2054 C.ar    
  10 C10           -0.8066    -4.8782    -0.0099 C.ar    
  11 C11           -2.0414    -4.3044     0.2704 C.ar    
  12 C12           -2.1594    -2.9248     0.3590 C.ar    
  13 N13           -3.1627    -5.1173     0.4677 N.am    
  14 C14           -4.1659    -4.6997     1.2651 C.2     
  15 C15           -5.3027    -5.5989     1.5550 C.ar    
  16 O16           -4.1357    -3.5836     1.7459 O.2     
  17 C17           -6.3431    -5.1695     2.3804 C.ar    
  18 C18            0.1870    -2.7013    -0.1178 C.ar    
  19 C19           -1.0087     0.0931    -0.9460 C.3     
  20 C20           -7.4019    -6.0131     2.6470 C.ar    
  21 C21           -7.4343    -7.2824     2.0985 C.ar    
  22 C22           -6.4055    -7.7154     1.2786 C.ar    
  23 C23           -5.3431    -6.8791     0.9998 C.ar    
  24 Cl24          -6.4553    -9.3103     0.5949 Cl      
  25 Cl25          -0.6576    -6.6042    -0.1217 Cl      
  26 H26           -1.3983     1.8861     0.7322 H       
  27 H27           -1.5050    -1.9731     2.5959 H       
  28 H28           -2.1126     1.4921     4.8059 H       
  29 H29            1.2601    -4.5231    -0.4231 H       
  30 H30           -3.1176    -2.4766     0.5769 H       
  31 H31           -3.2183    -5.9815     0.0306 H       
  32 H32           -6.3192    -4.1788     2.8098 H       
  33 H33            1.0546    -2.0767    -0.2713 H       
  34 H34            0.0384     0.3701    -1.0680 H       
  35 H35           -1.3391    -0.4714    -1.8180 H       
  36 H36           -1.6137     0.9942    -0.8459 H       
  37 H37           -8.2071    -5.6816     3.2859 H       
  38 H38           -8.2652    -7.9388     2.3108 H       
  39 H39           -4.5414    -7.2172     0.3601 H       
@<TRIPOS>BOND
   1    1    2 ar
   2    1    6 ar
   3    1   26 1
   4    2    3 ar
   5    2    7 1
   6    3    4 ar
   7    3   27 1
   8    4    5 ar
   9    5    6 ar
  10    5   28 1
  11    7    8 1
  12    7   19 1
  13    8   18 ar
  14    8   12 ar
  15    9   10 ar
  16    9   18 ar
  17    9   29 1
  18   10   11 ar
  19   10   25 1
  20   11   12 ar
  21   11   13 1
  22   12   30 1
  23   13   14 am
  24   13   31 1
  25   14   15 1
  26   14   16 2
  27   15   17 ar
  28   15   23 ar
  29   17   20 ar
  30   17   32 1
  31   18   33 1
  32   19   34 1
  33   19   35 1
  34   19   36 1
  35   20   21 ar
  36   20   37 1
  37   21   22 ar
  38   21   38 1
  39   22   23 ar
  40   22   24 1
  41   23   39 1

#	End of record

