#	Name: ASD04882344
#	Creating user name:	WinNT
#	Creation time:	15. 06. 2019 20:54

#	Modifying user name:	WinNT
#	Modification time:	15. 06. 2019 20:54

#	Program:	/corina/corina34_cracker 3.40 0067  02.08.2006

@<TRIPOS>MOLECULE
ASD04882344
  75   80    0    0    0
SMALL
NO_CHARGES


@<TRIPOS>ATOM
   1 N1             0.1627     1.0836     0.3527 N.am    
   2 C2             0.1106    -0.3087     0.2065 C.ar    
   3 C3            -1.1246    -0.9605     0.1515 C.ar    
   4 C4            -1.1777    -2.3421     0.0065 C.ar    
   5 C5            -0.0142    -3.0735    -0.0830 C.ar    
   6 C6             1.2243    -2.4281    -0.0283 C.ar    
   7 C7             1.2805    -1.0384     0.1108 C.ar    
   8 N8            -2.3035    -0.2250     0.2426 N.3     
   9 C9            -3.1277    -0.3999    -0.9614 C.3     
  10 C10           -3.0578    -0.5867     1.4508 C.3     
  11 C11           -4.3029     0.2972     1.5553 C.3     
  12 N12           -5.1271     0.1223     0.3513 N.3     
  13 C13           -4.3728     0.4840    -0.8569 C.3     
  14 C14            2.4705    -3.2119    -0.1237 C.2     
  15 O15            3.3858    -2.8162    -0.8196 O.2     
  16 C16            1.2202     1.7718    -0.1212 C.2     
  17 C17            1.2318     3.2365    -0.0532 C.2     
  18 O18            2.1656     1.1776    -0.6055 O.2     
  19 N19            2.5945    -4.3664     0.5605 N.am    
  20 C20            2.2341     4.0524    -0.4942 C.2     
  21 C21            1.8264     5.3699    -0.2330 C.2     
  22 C22            0.6086     5.3014     0.3485 C.2     
  23 O23            0.2515     4.0145     0.4506 O.3     
  24 C24           -6.3096     0.8600     0.4426 C.ar    
  25 C25           -6.2594     2.2404     0.5880 C.ar    
  26 C26           -7.5388     0.2153     0.3826 C.ar    
  27 C27           -8.7059     0.9476     0.4732 C.ar    
  28 C28           -8.6523     2.3215     0.6232 C.ar    
  29 C29           -7.4307     2.9668     0.6781 C.ar    
  30 C30           -7.5983    -1.2815     0.2181 C.3     
  31 C31            3.8571    -5.1239     0.5623 C.3     
  32 C32            4.3987    -5.1294     1.9908 C.3     
  33 C33            3.3163    -5.4915     2.9737 C.ar    
  34 C34            1.9733    -5.3882     2.6791 C.ar    
  35 C35            1.4791    -4.9159     1.3384 C.3     
  36 C36            3.7117    -5.9445     4.2233 C.ar    
  37 C37            2.7627    -6.2896     5.1825 C.ar    
  38 C38            1.4053    -6.1753     4.8790 C.ar    
  39 C39            1.0228    -5.7267     3.6346 C.ar    
  40 C40            3.1901    -6.7740     6.5124 C.2     
  41 O41            4.3736    -6.8722     6.7719 O.2     
  42 N42            2.2676    -7.1066     7.4369 N.am    
  43 H43           -0.5641     1.5527     0.7915 H       
  44 H44           -2.1336    -2.8430    -0.0357 H       
  45 H45           -0.0589    -4.1467    -0.1953 H       
  46 H46            2.2361    -0.5370     0.1534 H       
  47 H47           -2.5514    -0.1139    -1.8413 H       
  48 H48           -3.4290    -1.4439    -1.0473 H       
  49 H49           -3.3584    -1.6328     1.3923 H       
  50 H50           -2.4306    -0.4368     2.3296 H       
  51 H51           -4.8792     0.0112     2.4352 H       
  52 H52           -4.0016     1.3412     1.6412 H       
  53 H53           -4.0722     1.5301    -0.7985 H       
  54 H54           -5.0000     0.3341    -1.7357 H       
  55 H55            3.1612     3.7437    -0.9542 H       
  56 H56            2.3817     6.2692    -0.4551 H       
  57 H57            0.0186     6.1456     0.6737 H       
  58 H58           -5.3055     2.7451     0.6309 H       
  59 H59           -9.6618     0.4470     0.4266 H       
  60 H60           -9.5666     2.8920     0.6932 H       
  61 H61           -7.3923     4.0398     0.7953 H       
  62 H62           -7.6035    -1.7550     1.1999 H       
  63 H63           -8.5065    -1.5521    -0.3205 H       
  64 H64           -6.7280    -1.6202    -0.3439 H       
  65 H65            3.6740    -6.1468     0.2333 H       
  66 H66            4.5756    -4.6448    -0.1028 H       
  67 H67            5.2077    -5.8562     2.0646 H       
  68 H68            4.7848    -4.1389     2.2315 H       
  69 H69            0.7197    -4.1472     1.4819 H       
  70 H70            1.0459    -5.7557     0.7951 H       
  71 H71            4.7632    -6.0306     4.4543 H       
  72 H72            0.6597    -6.4369     5.6153 H       
  73 H73           -0.0273    -5.6369     3.3986 H       
  74 H74            1.3232    -7.0282     7.2298 H       
  75 H75            2.5480    -7.4244     8.3094 H       
@<TRIPOS>BOND
   1    1    2 1
   2    1   16 am
   3    1   43 1
   4    2    3 ar
   5    2    7 ar
   6    3    4 ar
   7    3    8 1
   8    4    5 ar
   9    4   44 1
  10    5    6 ar
  11    5   45 1
  12    6    7 ar
  13    6   14 1
  14    7   46 1
  15    8    9 1
  16    8   10 1
  17    9   13 1
  18    9   47 1
  19    9   48 1
  20   10   11 1
  21   10   49 1
  22   10   50 1
  23   11   12 1
  24   11   51 1
  25   11   52 1
  26   12   13 1
  27   12   24 1
  28   13   53 1
  29   13   54 1
  30   14   15 2
  31   14   19 am
  32   16   18 2
  33   16   17 1
  34   17   20 2
  35   17   23 1
  36   19   31 1
  37   19   35 1
  38   20   21 1
  39   20   55 1
  40   21   22 2
  41   21   56 1
  42   22   23 1
  43   22   57 1
  44   24   25 ar
  45   24   26 ar
  46   25   29 ar
  47   25   58 1
  48   26   27 ar
  49   26   30 1
  50   27   28 ar
  51   27   59 1
  52   28   29 ar
  53   28   60 1
  54   29   61 1
  55   30   62 1
  56   30   63 1
  57   30   64 1
  58   31   32 1
  59   31   65 1
  60   31   66 1
  61   32   33 1
  62   32   67 1
  63   32   68 1
  64   33   34 ar
  65   33   36 ar
  66   34   35 1
  67   34   39 ar
  68   35   69 1
  69   35   70 1
  70   36   37 ar
  71   36   71 1
  72   37   38 ar
  73   37   40 1
  74   38   39 ar
  75   38   72 1
  76   39   73 1
  77   40   41 2
  78   40   42 am
  79   42   74 1
  80   42   75 1

#	End of record

