#	Name: ASD01881387
#	Creating user name:	WinNT
#	Creation time:	15. 06. 2019 19:42

#	Modifying user name:	WinNT
#	Modification time:	15. 06. 2019 19:42

#	Program:	/corina/corina34_cracker 3.40 0067  02.08.2006

@<TRIPOS>MOLECULE
ASD01881387
  53   56    0    0    0
SMALL
NO_CHARGES


@<TRIPOS>ATOM
   1 C1            -0.0187     1.5258     0.0104 C.3     
   2 C2             0.0021    -0.0041     0.0020 C.3     
   3 C3             0.7182    -0.4975    -1.2568 C.3     
   4 C4             2.1536     0.0321    -1.2676 C.3     
   5 C5             2.1328     1.5619    -1.2592 C.3     
   6 C6             1.4167     2.0553    -0.0004 C.3     
   7 O7            -0.7098     1.9991    -1.1473 O.3     
   8 N8             2.8393    -0.4404    -2.4730 N.pl3   
   9 C9             2.4464    -0.1714    -3.7562 C.2     
  10 C10            3.2892    -0.7516    -4.6244 C.2     
  11 C11            4.3051    -1.4493    -3.8309 C.ar    
  12 C12            5.4221    -2.2174    -4.1496 C.ar    
  13 C13            6.1984    -2.7501    -3.1272 C.ar    
  14 C14            5.8567    -2.5140    -1.7898 C.ar    
  15 C15            4.7640    -1.7631    -1.4730 C.ar    
  16 C16            3.9744    -1.2134    -2.4817 C.ar    
  17 O17            8.3695    -4.2428    -2.5548 O.3     
  18 B18            7.4601    -3.6184    -3.4722 Du      
  19 O19            7.9561    -3.9617    -4.7739 O.3     
  20 C20            8.3825    -5.3350    -4.6518 C.3     
  21 C21            8.6628    -5.5256    -3.1473 C.3     
  22 C22           10.1303    -5.8944    -2.9209 C.3     
  23 C23            7.7453    -6.6034    -2.5664 C.3     
  24 C24            7.2712    -6.2811    -5.1111 C.3     
  25 C25            9.6563    -5.5721    -5.4656 C.3     
  26 H26           -0.5289     1.8773     0.9072 H       
  27 H27            0.5293    -0.3651     0.8851 H       
  28 H28           -1.0205    -0.3814     0.0098 H       
  29 H29            0.7330    -1.5874    -1.2628 H       
  30 H30            0.1910    -0.1364    -2.1398 H       
  31 H31            2.6808    -0.3290    -0.3846 H       
  32 H32            3.1554     1.9392    -1.2670 H       
  33 H33            1.6057     1.9230    -2.1423 H       
  34 H34            1.4019     3.1452     0.0056 H       
  35 H35            1.9439     1.6943     0.8826 H       
  36 H36           -0.7617     2.9629    -1.2077 H       
  37 H37            1.5850     0.4198    -4.0296 H       
  38 H38            3.2300    -0.7125    -5.7021 H       
  39 H39            5.6826    -2.3978    -5.1820 H       
  40 H40            6.4651    -2.9315    -1.0012 H       
  41 H41            4.5119    -1.5897    -0.4373 H       
  42 H42           10.3255    -5.9684    -1.8511 H       
  43 H43           10.3417    -6.8523    -3.3960 H       
  44 H44           10.7693    -5.1250    -3.3544 H       
  45 H45            6.7055    -6.3331    -2.7503 H       
  46 H46            7.9617    -7.5599    -3.0422 H       
  47 H47            7.9150    -6.6850    -1.4928 H       
  48 H48            7.0454    -6.0939    -6.1609 H       
  49 H49            7.5991    -7.3134    -4.9885 H       
  50 H50            6.3774    -6.1101    -4.5111 H       
  51 H51           10.4413    -4.9020    -5.1151 H       
  52 H52            9.9791    -6.6059    -5.3423 H       
  53 H53            9.4558    -5.3773    -6.5192 H       
@<TRIPOS>BOND
   1    1    2 1
   2    1    6 1
   3    1    7 1
   4    1   26 1
   5    2    3 1
   6    2   27 1
   7    2   28 1
   8    3    4 1
   9    3   29 1
  10    3   30 1
  11    4    5 1
  12    4    8 1
  13    4   31 1
  14    5    6 1
  15    5   32 1
  16    5   33 1
  17    6   34 1
  18    6   35 1
  19    7   36 1
  20    8    9 1
  21    8   16 1
  22    9   10 2
  23    9   37 1
  24   10   11 1
  25   10   38 1
  26   11   12 ar
  27   11   16 ar
  28   12   13 ar
  29   12   39 1
  30   13   14 ar
  31   13   18 1
  32   14   15 ar
  33   14   40 1
  34   15   16 ar
  35   15   41 1
  36   17   18 1
  37   17   21 1
  38   18   19 1
  39   19   20 1
  40   20   21 1
  41   20   24 1
  42   20   25 1
  43   21   22 1
  44   21   23 1
  45   22   42 1
  46   22   43 1
  47   22   44 1
  48   23   45 1
  49   23   46 1
  50   23   47 1
  51   24   48 1
  52   24   49 1
  53   24   50 1
  54   25   51 1
  55   25   52 1
  56   25   53 1

#	End of record

