#	Name: ASD05170118
#	Creating user name:	WinNT
#	Creation time:	15. 06. 2019 20:57

#	Modifying user name:	WinNT
#	Modification time:	15. 06. 2019 20:57

#	Program:	/corina/corina34_cracker 3.40 0067  02.08.2006

@<TRIPOS>MOLECULE
ASD05170118
  42   45    0    0    0
SMALL
NO_CHARGES


@<TRIPOS>ATOM
   1 C1            -0.0350     1.3808    -0.0570 C.ar    
   2 C2            -0.0188    -0.0028    -0.0732 C.ar    
   3 C3             1.2101    -0.6507    -0.0791 C.ar    
   4 C4             2.3696     0.1003    -0.0688 C.ar    
   5 N5             2.3209     1.4190    -0.0534 N.ar    
   6 C6             1.1705     2.0710    -0.0473 C.ar    
   7 O7             1.1675     3.4279    -0.0314 O.3     
   8 C8             2.4393     4.0794    -0.0221 C.3     
   9 C9             2.2386     5.5729    -0.0048 C.2     
  10 C10            1.0056     6.2387     0.0069 C.2     
  11 N11            3.1879     6.4794     0.0075 N.2     
  12 C12            1.3204     7.5678     0.0191 C.2     
  13 C13            0.4772     8.7726     0.0391 C.2     
  14 N14            2.6952     7.6557     0.0302 N.pl3   
  15 C15            3.3726     8.9569     0.0800 C.3     
  16 C16            2.5015    10.0051    -0.6108 C.3     
  17 N17            1.1094     9.9527    -0.1710 N.am    
  18 O18           -0.7220     8.7130     0.2332 O.2     
  19 C19            3.5977     9.3603     1.5386 C.3     
  20 Cl20           1.2877    -2.3849    -0.0988 Cl      
  21 C21            0.4170    11.1438     0.0417 C.ar    
  22 N22            0.3753    11.6696     1.2557 N.ar    
  23 C23           -0.2683    12.7947     1.5011 C.ar    
  24 C24           -0.9276    13.4691     0.4893 C.ar    
  25 C25           -0.9072    12.9491    -0.7993 C.ar    
  26 C26           -0.2179    11.7703    -1.0243 C.ar    
  27 F27           -1.5846    14.6202     0.7510 F       
  28 H28           -0.9725     1.9170    -0.0565 H       
  29 H29           -0.9403    -0.5659    -0.0807 H       
  30 H30            3.3278    -0.3980    -0.0729 H       
  31 H31            2.9957     3.7773     0.8652 H       
  32 H32            2.9982     3.7982    -0.9146 H       
  33 H33            0.0201     5.7968     0.0059 H       
  34 H34            4.3327     8.8873    -0.4314 H       
  35 H35            2.9022    10.9952    -0.3935 H       
  36 H36            2.5388     9.8405    -1.6876 H       
  37 H37            4.2158     8.6102     2.0318 H       
  38 H38            4.1007    10.3266     1.5748 H       
  39 H39            2.6368     9.4315     2.0482 H       
  40 H40           -0.2807    13.1941     2.5045 H       
  41 H41           -1.4141    13.4555    -1.6074 H       
  42 H42           -0.1778    11.3404    -2.0142 H       
@<TRIPOS>BOND
   1    1    2 ar
   2    1    6 ar
   3    1   28 1
   4    2    3 ar
   5    2   29 1
   6    3    4 ar
   7    3   20 1
   8    4    5 ar
   9    4   30 1
  10    5    6 ar
  11    6    7 1
  12    7    8 1
  13    8    9 1
  14    8   31 1
  15    8   32 1
  16    9   11 2
  17    9   10 1
  18   10   12 2
  19   10   33 1
  20   11   14 1
  21   12   14 1
  22   12   13 1
  23   13   17 am
  24   13   18 2
  25   14   15 1
  26   15   16 1
  27   15   19 1
  28   15   34 1
  29   16   17 1
  30   16   35 1
  31   16   36 1
  32   17   21 1
  33   19   37 1
  34   19   38 1
  35   19   39 1
  36   21   22 ar
  37   21   26 ar
  38   22   23 ar
  39   23   24 ar
  40   23   40 1
  41   24   25 ar
  42   24   27 1
  43   25   26 ar
  44   25   41 1
  45   26   42 1

#	End of record

