#	Name: ASD00844653
#	Creating user name:	WinNT
#	Creation time:	15. 06. 2019 18:50

#	Modifying user name:	WinNT
#	Modification time:	15. 06. 2019 18:50

#	Program:	/corina/corina34_cracker 3.40 0067  02.08.2006

@<TRIPOS>MOLECULE
ASD00844653
  99  104    0    0    0
SMALL
NO_CHARGES


@<TRIPOS>ATOM
   1 C1             0.7228     1.1987    -0.4213 C.ar    
   2 C2             0.9743    -0.1421    -0.6729 C.ar    
   3 C3             0.8845    -1.0675     0.3571 C.ar    
   4 C4             0.5451    -0.6518     1.6298 C.ar    
   5 C5             0.2944     0.6853     1.8779 C.ar    
   6 C6             0.3836     1.6094     0.8535 C.ar    
   7 C7             1.1566    -2.5249     0.0872 C.3     
   8 C8             0.8607    -3.3563     1.3173 C.2     
   9 C9             0.3264    -3.0126    -1.1019 C.3     
  10 C10           -1.1303    -2.7192    -0.8514 C.2     
  11 N11           -2.0644    -3.1545    -1.7200 N.am    
  12 O12           -1.4622    -2.0913     0.1317 O.2     
  13 C13           -3.4751    -2.7797    -1.5524 C.3     
  14 C14           -4.3256    -4.0538    -1.5386 C.3     
  15 C15           -4.0375    -4.8683    -2.8018 C.3     
  16 C16           -2.5617    -5.2729    -2.8244 C.3     
  17 C17           -1.6905    -4.0080    -2.8560 C.3     
  18 C18           -4.9106    -6.1247    -2.8083 C.3     
  19 C19           -6.3876    -5.7215    -2.7874 C.3     
  20 C20           -7.2559    -6.9799    -2.8555 C.3     
  21 N21           -6.9498    -7.7214    -4.0855 N.3     
  22 C22           -5.5485    -8.1599    -4.1063 C.3     
  23 C23           -4.6293    -6.9368    -4.0755 C.3     
  24 C24           -7.8608    -8.8615    -4.2534 C.3     
  25 O25           -0.2128    -3.4668     1.8709 O.2     
  26 N26            2.0107    -3.9485     1.6808 N.am    
  27 C27            2.6299    -2.7510    -0.1637 C.ar    
  28 C28            3.0681    -3.6144     0.8329 C.ar    
  29 C29            3.4983    -2.2815    -1.1231 C.ar    
  30 C30            4.8274    -2.6699    -1.1018 C.ar    
  31 C31            5.2771    -3.5307    -0.1132 C.ar    
  32 C32            4.4058    -4.0022     0.8501 C.ar    
  33 Cl33           5.9263    -2.0811    -2.3098 Cl      
  34 F34            6.5734    -3.9106    -0.0911 F       
  35 C35            1.8347    -6.5949     2.4158 C.ar    
  36 C36            0.5736    -6.9286     1.9430 C.ar    
  37 C37            2.8398    -7.5432     2.4354 C.ar    
  38 C38            2.5920    -8.8252     1.9842 C.ar    
  39 C39            1.3322    -9.1640     1.5104 C.ar    
  40 C40            0.3222    -8.2147     1.4901 C.ar    
  41 O41            1.0889   -10.4254     1.0671 O.3     
  42 O42           -0.4145    -5.9958     1.9244 O.3     
  43 C43           -1.6877    -6.4093     1.4246 C.3     
  44 C44            2.1758   -11.3517     1.1175 C.3     
  45 C45           -7.6807    -9.4566    -5.6514 C.3     
  46 C46           -8.6295   -10.6440    -5.8263 C.3     
  47 O47            1.3076    -0.5486    -1.9261 O.3     
  48 C48            1.3255     0.4494    -2.9486 C.3     
  49 C49            1.7963    -0.1758    -4.2633 C.3     
  50 F50            3.0466    -0.7740    -4.0738 F       
  51 F51            0.8741    -1.1434    -4.6761 F       
  52 S52            2.1569    -4.9587     2.9848 S.o2    
  53 O53            3.5259    -4.9282     3.3644 O.2     
  54 O54            1.0971    -4.6260     3.8709 O.2     
  55 H55            0.7964     1.9215    -1.2204 H       
  56 H56            0.4751    -1.3717     2.4318 H       
  57 H57            0.0285     1.0083     2.8736 H       
  58 H58            0.1874     2.6531     1.0498 H       
  59 H59            0.6504    -2.4981    -2.0065 H       
  60 H60            0.4647    -4.0867    -1.2254 H       
  61 H61           -3.6019    -2.2455    -0.6107 H       
  62 H62           -3.7849    -2.1426    -2.3808 H       
  63 H63           -4.0776    -4.6472    -0.6586 H       
  64 H64           -5.3818    -3.7859    -1.5114 H       
  65 H65           -4.2624    -4.2655    -3.6817 H       
  66 H66           -2.3303    -5.8549    -1.9323 H       
  67 H67           -2.3625    -5.8727    -3.7125 H       
  68 H68           -1.8559    -3.4736    -3.7915 H       
  69 H69           -0.6398    -4.2859    -2.7724 H       
  70 H70           -4.6856    -6.7292    -1.9297 H       
  71 H71           -6.6039    -5.1796    -1.8667 H       
  72 H72           -6.6030    -5.0839    -3.6448 H       
  73 H73           -7.0500    -7.6105    -1.9905 H       
  74 H74           -8.3082    -6.6955    -2.8552 H       
  75 H75           -5.3506    -8.7850    -3.2355 H       
  76 H76           -5.3607    -8.7327    -5.0145 H       
  77 H77           -4.8170    -6.3184    -4.9532 H       
  78 H78           -3.5893    -7.2631    -4.0752 H       
  79 H79           -7.6356    -9.6200    -3.5038 H       
  80 H80           -8.8904    -8.5248    -4.1318 H       
  81 H81            3.1434    -1.6111    -1.8919 H       
  82 H82            4.7628    -4.6725     1.6180 H       
  83 H83            3.8208    -7.2815     2.8037 H       
  84 H84            3.3793    -9.5643     1.9998 H       
  85 H85           -0.6588    -8.4765     1.1221 H       
  86 H86           -1.5817    -6.7443     0.3927 H       
  87 H87           -2.0692    -7.2279     2.0349 H       
  88 H88           -2.3835    -5.5713     1.4648 H       
  89 H89            2.5107   -11.4631     2.1487 H       
  90 H90            1.8474   -12.3183     0.7356 H       
  91 H91            2.9984   -10.9801     0.5065 H       
  92 H92           -7.9059    -8.6980    -6.4010 H       
  93 H93           -6.6511    -9.7932    -5.7730 H       
  94 H94           -8.4043   -11.4026    -5.0767 H       
  95 H95           -9.6591   -10.3074    -5.7046 H       
  96 H96           -8.5011   -11.0680    -6.8222 H       
  97 H97            0.3221     0.8551    -3.0780 H       
  98 H98            2.0072     1.2505    -2.6626 H       
  99 H99            1.8760     0.5989    -5.0260 H       
@<TRIPOS>BOND
   1    1    2 ar
   2    1    6 ar
   3    1   55 1
   4    2    3 ar
   5    2   47 1
   6    3    4 ar
   7    3    7 1
   8    4    5 ar
   9    4   56 1
  10    5    6 ar
  11    5   57 1
  12    6   58 1
  13    7    8 1
  14    7    9 1
  15    7   27 1
  16    8   25 2
  17    8   26 am
  18    9   10 1
  19    9   59 1
  20    9   60 1
  21   10   11 am
  22   10   12 2
  23   11   13 1
  24   11   17 1
  25   13   14 1
  26   13   61 1
  27   13   62 1
  28   14   15 1
  29   14   63 1
  30   14   64 1
  31   15   16 1
  32   15   18 1
  33   15   65 1
  34   16   17 1
  35   16   66 1
  36   16   67 1
  37   17   68 1
  38   17   69 1
  39   18   19 1
  40   18   23 1
  41   18   70 1
  42   19   20 1
  43   19   71 1
  44   19   72 1
  45   20   21 1
  46   20   73 1
  47   20   74 1
  48   21   22 1
  49   21   24 1
  50   22   23 1
  51   22   75 1
  52   22   76 1
  53   23   77 1
  54   23   78 1
  55   24   45 1
  56   24   79 1
  57   24   80 1
  58   26   52 am
  59   26   28 1
  60   27   28 ar
  61   27   29 ar
  62   28   32 ar
  63   29   30 ar
  64   29   81 1
  65   30   31 ar
  66   30   33 1
  67   31   32 ar
  68   31   34 1
  69   32   82 1
  70   35   36 ar
  71   35   37 ar
  72   35   52 1
  73   36   42 1
  74   36   40 ar
  75   37   38 ar
  76   37   83 1
  77   38   39 ar
  78   38   84 1
  79   39   40 ar
  80   39   41 1
  81   40   85 1
  82   41   44 1
  83   42   43 1
  84   43   86 1
  85   43   87 1
  86   43   88 1
  87   44   89 1
  88   44   90 1
  89   44   91 1
  90   45   46 1
  91   45   92 1
  92   45   93 1
  93   46   94 1
  94   46   95 1
  95   46   96 1
  96   47   48 1
  97   48   49 1
  98   48   97 1
  99   48   98 1
 100   49   50 1
 101   49   51 1
 102   49   99 1
 103   52   53 2
 104   52   54 2

#	End of record

