#	Name: ASD06390007
#	Creating user name:	WinNT
#	Creation time:	15. 06. 2019 21:06

#	Modifying user name:	WinNT
#	Modification time:	15. 06. 2019 21:06

#	Program:	/corina/corina34_cracker 3.40 0067  02.08.2006

@<TRIPOS>MOLECULE
ASD06390007
  36   33    0    0    0
SMALL
NO_CHARGES


@<TRIPOS>ATOM
   1 N1            -0.0178     1.4648     0.0101 N.3     
   2 C2             0.0021    -0.0041     0.0020 C.3     
   3 C3            -0.7972    -0.5315     1.1953 C.3     
   4 N4             0.0555    -1.4118     2.0052 N.3     
   5 C5            -0.0085    -1.0449     3.4262 C.3     
   6 C6             1.4092    -0.8438     3.9653 C.3     
   7 N7             1.5411     0.5179     4.5003 N.3     
   8 C8             2.7177     1.1932     3.9369 C.3     
   9 C9             2.3060     2.5594     3.3848 C.3     
  10 N10            2.6667     2.6420     1.9632 N.3     
  11 C11            1.5036     3.0117     1.1456 C.3     
  12 C12            1.3463     2.0098    -0.0000 C.3     
  13 H13           -0.5563     1.8234    -0.7642 H       
  14 H14           -0.4437    -0.3684    -0.9235 H       
  15 H15            1.0321    -0.3539     0.0715 H       
  16 H16           -1.1365     0.3064     1.8042 H       
  17 H17           -1.6600    -1.0920     0.8354 H       
  18 H18           -0.1933    -2.3803     1.8702 H       
  19 H19           -0.5741    -0.1198     3.5374 H       
  20 H20           -0.5003    -1.8410     3.9852 H       
  21 H21            1.6021    -1.5661     4.7585 H       
  22 H22            2.1284    -0.9887     3.1592 H       
  23 H23            0.7026     1.0542     4.3348 H       
  24 H24            3.4676     1.3274     4.7165 H       
  25 H25            3.1343     0.5868     3.1326 H       
  26 H26            1.2289     2.6860     3.4943 H       
  27 H27            2.8221     3.3449     3.9368 H       
  28 H28            3.4290     3.2875     1.8204 H       
  29 H29            0.6062     3.0002     1.7642 H       
  30 H30            1.6501     4.0114     0.7364 H       
  31 H31            2.0628     1.1982     0.1262 H       
  32 H32            1.5298     2.5121    -0.9498 H       
  33 Zn33           8.4676     9.0114     9.7585 Du      
  34 Zn34           8.4676    11.1514     9.7585 Du      
  35 Cl35          13.4676    16.1514    14.7585 Cl      
  36 Cl36          18.4676    21.1514    19.7585 Cl      
@<TRIPOS>BOND
   1    1    2 1
   2    1   12 1
   3    1   13 1
   4    2    3 1
   5    2   14 1
   6    2   15 1
   7    3    4 1
   8    3   16 1
   9    3   17 1
  10    4    5 1
  11    4   18 1
  12    5    6 1
  13    5   19 1
  14    5   20 1
  15    6    7 1
  16    6   21 1
  17    6   22 1
  18    7    8 1
  19    7   23 1
  20    8    9 1
  21    8   24 1
  22    8   25 1
  23    9   10 1
  24    9   26 1
  25    9   27 1
  26   10   11 1
  27   10   28 1
  28   11   12 1
  29   11   29 1
  30   11   30 1
  31   12   31 1
  32   12   32 1
  33   33   34 1

#	End of record

