#	Name: ASD01915432
#	Creating user name:	WinNT
#	Creation time:	15. 06. 2019 20:05

#	Modifying user name:	WinNT
#	Modification time:	15. 06. 2019 20:05

#	Program:	/corina/corina34_cracker 3.40 0067  02.08.2006

@<TRIPOS>MOLECULE
ASD01915432
  44   48    0    0    0
SMALL
NO_CHARGES


@<TRIPOS>ATOM
   1 N1            -0.0169     1.3938     0.0097 N.pl3   
   2 N2             0.0021    -0.0041     0.0020 N.2     
   3 C3             1.2411    -0.4344    -0.0121 C.2     
   4 C4             2.1140     0.7401    -0.0141 C.ar    
   5 C5             1.2703     1.8661    -0.0000 C.ar    
   6 N6             1.7882     3.0872     0.0019 N.ar    
   7 C7             3.5116     0.9217    -0.0265 C.ar    
   8 C8             4.0002     2.2261    -0.0242 C.ar    
   9 C9             3.0961     3.2921    -0.0091 C.ar    
  10 C10            1.6774    -1.8513    -0.0239 C.ar    
  11 C11            0.9457    -2.8144     0.6691 C.ar    
  12 C12            1.3563    -4.1319     0.6542 C.ar    
  13 C13            2.4915    -4.4974    -0.0467 C.ar    
  14 C14            3.2218    -3.5459    -0.7358 C.ar    
  15 C15            2.8176    -2.2264    -0.7327 C.ar    
  16 C16            4.4325    -0.2389    -0.0410 C.ar    
  17 C17            5.2565    -0.4649    -1.1431 C.ar    
  18 C18            6.1121    -1.5476    -1.1508 C.ar    
  19 C19            6.1534    -2.4078    -0.0682 C.ar    
  20 C20            5.3380    -2.1890     1.0277 C.ar    
  21 C21            4.4828    -1.1063     1.0497 C.ar    
  22 C22            3.6129     4.6818    -0.0061 C.ar    
  23 C23            2.9247     5.6857    -0.6857 C.ar    
  24 C24            3.4102     6.9774    -0.6791 C.ar    
  25 C25            4.5777     7.2769    -0.0002 C.ar    
  26 C26            5.2648     6.2849     0.6759 C.ar    
  27 C27            4.7858     4.9907     0.6811 C.ar    
  28 F28            5.3311     2.4580    -0.0356 F       
  29 H29           -0.8159     1.9438     0.0166 H       
  30 H30            0.0594    -2.5301     1.2169 H       
  31 H31            0.7904    -4.8789     1.1910 H       
  32 H32            2.8091    -5.5296    -0.0555 H       
  33 H33            4.1077    -3.8370    -1.2807 H       
  34 H34            3.3858    -1.4852    -1.2751 H       
  35 H35            5.2248     0.2058    -1.9890 H       
  36 H36            6.7504    -1.7238    -2.0040 H       
  37 H37            6.8246    -3.2538    -0.0788 H       
  38 H38            5.3742    -2.8644     1.8697 H       
  39 H39            3.8503    -0.9337     1.9079 H       
  40 H40            2.0135     5.4528    -1.2167 H       
  41 H41            2.8779     7.7560    -1.2053 H       
  42 H42            4.9543     8.2891     0.0016 H       
  43 H43            6.1758     6.5245     1.2043 H       
  44 H44            5.3207     4.2178     1.2130 H       
@<TRIPOS>BOND
   1    1    2 1
   2    1    5 1
   3    1   29 1
   4    2    3 2
   5    3    4 1
   6    3   10 1
   7    4    7 ar
   8    4    5 ar
   9    5    6 ar
  10    6    9 ar
  11    7    8 ar
  12    7   16 1
  13    8    9 ar
  14    8   28 1
  15    9   22 1
  16   10   11 ar
  17   10   15 ar
  18   11   12 ar
  19   11   30 1
  20   12   13 ar
  21   12   31 1
  22   13   14 ar
  23   13   32 1
  24   14   15 ar
  25   14   33 1
  26   15   34 1
  27   16   17 ar
  28   16   21 ar
  29   17   18 ar
  30   17   35 1
  31   18   19 ar
  32   18   36 1
  33   19   20 ar
  34   19   37 1
  35   20   21 ar
  36   20   38 1
  37   21   39 1
  38   22   23 ar
  39   22   27 ar
  40   23   24 ar
  41   23   40 1
  42   24   25 ar
  43   24   41 1
  44   25   26 ar
  45   25   42 1
  46   26   27 ar
  47   26   43 1
  48   27   44 1

#	End of record

