#	Name: ASD01230479
#	Creating user name:	WinNT
#	Creation time:	15. 06. 2019 19:14

#	Modifying user name:	WinNT
#	Modification time:	15. 06. 2019 19:14

#	Program:	/corina/corina34_cracker 3.40 0067  02.08.2006

@<TRIPOS>MOLECULE
ASD01230479
  45   48    0    0    0
SMALL
NO_CHARGES


@<TRIPOS>ATOM
   1 S1             1.5475    -0.2337     0.4707 S.o2    
   2 N2             1.1365    -1.7200    -0.1090 N.am    
   3 C3             1.9213    -2.4823    -0.7605 C.2     
   4 N4             3.2080    -2.1564    -1.1065 N.pl3   
   5 C5             3.6457    -0.7680    -1.1970 C.3     
   6 C6             3.3126    -0.0436     0.1088 C.3     
   7 C7             1.4493    -3.8516    -1.2224 C.3     
   8 C8             2.0886    -4.1171    -2.5877 C.3     
   9 C9             3.6077    -4.1531    -2.4880 C.3     
  10 C10            4.1377    -3.2589    -1.3736 C.3     
  11 C11           -0.0523    -3.8606    -1.3489 C.ar    
  12 C12           -0.8033    -4.7425    -0.5939 C.ar    
  13 C13           -2.1799    -4.7525    -0.7076 C.ar    
  14 C14           -2.8090    -3.8764    -1.5805 C.ar    
  15 C15           -2.0531    -2.9923    -2.3371 C.ar    
  16 C16           -0.6771    -2.9829    -2.2156 C.ar    
  17 O17           -4.1631    -3.8844    -1.6947 O.3     
  18 C18           -4.8690    -4.6897    -0.8582 C.ar    
  19 C19           -5.2812    -4.2156     0.3790 C.ar    
  20 C20           -5.9992    -5.0370     1.2280 C.ar    
  21 C21           -6.3064    -6.3309     0.8443 C.ar    
  22 C22           -5.8960    -6.8046    -0.3877 C.ar    
  23 C23           -5.1835    -5.9853    -1.2422 C.ar    
  24 Cl24          -6.5152    -4.4456     2.7764 Cl      
  25 O25            0.7806     0.6689    -0.3145 O.2     
  26 O26            1.3374    -0.3379     1.8722 O.2     
  27 H27            4.7221    -0.7365    -1.3658 H       
  28 H28            3.1333    -0.2785    -2.0252 H       
  29 H29            3.5509     1.0153     0.0080 H       
  30 H30            3.8985    -0.4722     0.9219 H       
  31 H31            1.7669    -4.6130    -0.5099 H       
  32 H32            1.7329    -5.0744    -2.9685 H       
  33 H33            1.7947    -3.3274    -3.2792 H       
  34 H34            3.9248    -5.1786    -2.2987 H       
  35 H35            4.0317    -3.8238    -3.4366 H       
  36 H36            5.1037    -2.8501    -1.6701 H       
  37 H37            4.2624    -3.8510    -0.4669 H       
  38 H38           -0.3131    -5.4245     0.0852 H       
  39 H39           -2.7660    -5.4418    -0.1179 H       
  40 H40           -2.5403    -2.3097    -3.0175 H       
  41 H41           -0.0885    -2.2922    -2.8012 H       
  42 H42           -5.0411    -3.2062     0.6785 H       
  43 H43           -6.8674    -6.9714     1.5087 H       
  44 H44           -6.1364    -7.8148    -0.6846 H       
  45 H45           -4.8678    -6.3546    -2.2067 H       
@<TRIPOS>BOND
   1    1    2 am
   2    1    6 1
   3    1   25 2
   4    1   26 2
   5    2    3 2
   6    3    4 1
   7    3    7 1
   8    4    5 1
   9    4   10 1
  10    5    6 1
  11    5   27 1
  12    5   28 1
  13    6   29 1
  14    6   30 1
  15    7    8 1
  16    7   11 1
  17    7   31 1
  18    8    9 1
  19    8   32 1
  20    8   33 1
  21    9   10 1
  22    9   34 1
  23    9   35 1
  24   10   36 1
  25   10   37 1
  26   11   12 ar
  27   11   16 ar
  28   12   13 ar
  29   12   38 1
  30   13   14 ar
  31   13   39 1
  32   14   15 ar
  33   14   17 1
  34   15   16 ar
  35   15   40 1
  36   16   41 1
  37   17   18 1
  38   18   19 ar
  39   18   23 ar
  40   19   20 ar
  41   19   42 1
  42   20   21 ar
  43   20   24 1
  44   21   22 ar
  45   21   43 1
  46   22   23 ar
  47   22   44 1
  48   23   45 1

#	End of record

