#	Name: ASD05430669
#	Creating user name:	WinNT
#	Creation time:	15. 06. 2019 21:00

#	Modifying user name:	WinNT
#	Modification time:	15. 06. 2019 21:00

#	Program:	/corina/corina34_cracker 3.40 0067  02.08.2006

@<TRIPOS>MOLECULE
ASD05430669
  27   27    0    0    0
SMALL
NO_CHARGES


@<TRIPOS>ATOM
   1 C1            -0.0167     1.3784     0.0096 C.ar    
   2 C2             0.0021    -0.0041     0.0020 C.ar    
   3 C3            -1.1841    -0.7121     0.0091 C.ar    
   4 C4            -2.4107     1.3522     0.0439 C.ar    
   5 C5            -1.2219     2.0557     0.0305 C.ar    
   6 C6             1.2788     2.1484     0.0014 C.3     
   7 C7            -2.3948    -0.0349     0.0243 C.ar    
   8 C8             1.3368     3.0356    -1.2437 C.3     
   9 C9             1.3607     3.0222     1.2546 C.3     
  10 O10           -3.5630    -0.7292     0.0313 O.3     
  11 S11           -4.1292    -1.0828     1.5511 Du      
  12 F12           -4.4460    -2.5901     1.0825 F       
  13 F13           -3.8124     0.4246     2.0198 F       
  14 F14           -2.6493    -1.5327     1.9978 F       
  15 F15           -4.6783    -1.4257     3.0252 F       
  16 F16           -5.6091    -0.6328     1.1045 F       
  17 H17            0.9448    -0.5308    -0.0098 H       
  18 H18           -1.1689    -1.7920     0.0024 H       
  19 H19           -3.3519     1.8817     0.0602 H       
  20 H20           -1.2338     3.1355     0.0461 H       
  21 H21            2.1161     1.4506    -0.0104 H       
  22 H22            2.2738     3.5925    -1.2497 H       
  23 H23            1.2785     2.4131    -2.1365 H       
  24 H24            0.4995     3.7334    -1.2320 H       
  25 H25            1.3193     2.3901     2.1416 H       
  26 H26            2.2977     3.5791     1.2487 H       
  27 H27            0.5234     3.7200     1.2664 H       
@<TRIPOS>BOND
   1    1    2 ar
   2    1    6 1
   3    1    5 ar
   4    2    3 ar
   5    2   17 1
   6    3    7 ar
   7    3   18 1
   8    4    5 ar
   9    4    7 ar
  10    4   19 1
  11    5   20 1
  12    6    8 1
  13    6    9 1
  14    6   21 1
  15    7   10 1
  16    8   22 1
  17    8   23 1
  18    8   24 1
  19    9   25 1
  20    9   26 1
  21    9   27 1
  22   10   11 1
  23   11   12 1
  24   11   13 1
  25   11   14 1
  26   11   15 1
  27   11   16 1

#	End of record

