#	Name: ASD01001110
#	Creating user name:	WinNT
#	Creation time:	15. 06. 2019 18:55

#	Modifying user name:	WinNT
#	Modification time:	15. 06. 2019 18:55

#	Program:	/corina/corina34_cracker 3.40 0067  02.08.2006

@<TRIPOS>MOLECULE
ASD01001110
  43   45    0    0    0
SMALL
NO_CHARGES


@<TRIPOS>ATOM
   1 C1            -0.0160     1.3257     0.0093 C.2     
   2 C2             0.0021    -0.0041     0.0020 C.2     
   3 C3            -1.3399    -0.5798     0.0118 C.2     
   4 C4            -2.3297     0.3592     0.0261 C.2     
   5 S5            -1.6730     1.9282     0.0348 S.3     
   6 N6            -3.6851     0.0736     0.0375 N.am    
   7 C7            -4.5851     1.0767     0.0513 C.2     
   8 C8            -1.5978    -2.0228     0.0062 C.2     
   9 O9            -1.6948    -2.6278     1.0579 O.2     
  10 N10           -1.7277    -2.6796    -1.1635 N.am    
  11 C11           -1.6111    -1.9515    -2.4293 C.3     
  12 C12           -1.9855    -4.1218    -1.1690 C.3     
  13 C13           -0.1506    -1.9518    -2.8852 C.3     
  14 C14           -3.4952    -4.3700    -1.1558 C.3     
  15 C15           -6.0187     0.7745     0.0634 C.2     
  16 O16           -4.2070     2.2336     0.0539 O.2     
  17 C17           -7.0242     1.7004     0.0778 C.2     
  18 C18           -8.2793     1.1398     0.0863 C.2     
  19 C19           -8.3035    -0.1983     0.0790 C.2     
  20 S20           -6.7216    -0.8372     0.0538 S.3     
  21 C21            1.4045     1.8776    -0.0013 C.3     
  22 C22            1.4410    -0.5122    -0.0149 C.3     
  23 C23            2.2928     0.6933     0.4304 C.3     
  24 H24           -3.9865    -0.8484     0.0355 H       
  25 H25           -2.2279    -2.4367    -3.1858 H       
  26 H26           -1.9480    -0.9243    -2.2900 H       
  27 H27           -1.5523    -4.5648    -2.0657 H       
  28 H28           -1.5351    -4.5748    -0.2859 H       
  29 H29           -0.0638    -1.4100    -3.8270 H       
  30 H30            0.4662    -1.4666    -2.1287 H       
  31 H31            0.1864    -2.9790    -3.0245 H       
  32 H32           -3.9285    -3.9269    -0.2591 H       
  33 H33           -3.9457    -3.9170    -2.0390 H       
  34 H34           -3.6870    -5.4430    -1.1600 H       
  35 H35           -6.8499     2.7663     0.0824 H       
  36 H36           -9.1800     1.7355     0.0982 H       
  37 H37           -9.2042    -0.7941     0.0846 H       
  38 H38            1.6751     2.2089    -1.0038 H       
  39 H39            1.4973     2.6996     0.7085 H       
  40 H40            1.5593    -1.3392     0.6852 H       
  41 H41            1.7213    -0.8234    -1.0213 H       
  42 H42            3.2487     0.7109    -0.0933 H       
  43 H43            2.4409     0.6894     1.5102 H       
@<TRIPOS>BOND
   1    1    2 2
   2    1   21 1
   3    1    5 1
   4    2    3 1
   5    2   22 1
   6    3    4 2
   7    3    8 1
   8    4    5 1
   9    4    6 1
  10    6    7 am
  11    6   24 1
  12    7   15 1
  13    7   16 2
  14    8    9 2
  15    8   10 am
  16   10   11 1
  17   10   12 1
  18   11   13 1
  19   11   25 1
  20   11   26 1
  21   12   14 1
  22   12   27 1
  23   12   28 1
  24   13   29 1
  25   13   30 1
  26   13   31 1
  27   14   32 1
  28   14   33 1
  29   14   34 1
  30   15   17 2
  31   15   20 1
  32   17   18 1
  33   17   35 1
  34   18   19 2
  35   18   36 1
  36   19   20 1
  37   19   37 1
  38   21   23 1
  39   21   38 1
  40   21   39 1
  41   22   23 1
  42   22   40 1
  43   22   41 1
  44   23   42 1
  45   23   43 1

#	End of record

