#	Name: ASD01815572
#	Creating user name:	WinNT
#	Creation time:	15. 06. 2019 19:33

#	Modifying user name:	WinNT
#	Modification time:	15. 06. 2019 19:33

#	Program:	/corina/corina34_cracker 3.40 0067  02.08.2006

@<TRIPOS>MOLECULE
ASD01815572
  34   36    0    0    0
SMALL
NO_CHARGES


@<TRIPOS>ATOM
   1 C1             1.1553     2.2510    -0.5139 C.ar    
   2 C2             0.7790     0.9158    -0.4988 C.ar    
   3 C3             1.7216    -0.0800    -0.3468 C.ar    
   4 C4             3.0687     0.2526    -0.2068 C.ar    
   5 C5             3.4452     1.6059    -0.2232 C.ar    
   6 C6             2.4804     2.6015    -0.3773 C.ar    
   7 N7             4.0211    -0.7324    -0.0537 N.pl3   
   8 C8             5.3256    -0.4650     0.0851 C.2     
   9 C9             5.8159     0.8255     0.0850 C.2     
  10 C10            4.8730     1.9443    -0.0743 C.2     
  11 F11            1.3401    -1.3759    -0.3330 F       
  12 O12            5.2556     3.1011    -0.0814 O.2     
  13 C13            7.2554     1.0779     0.2410 C.2     
  14 O14            8.0252     0.1462     0.3716 O.2     
  15 O15            7.7220     2.3426     0.2393 O.3     
  16 C16            3.5871    -2.1316    -0.0418 C.3     
  17 C17            3.4442    -2.6253    -1.4585 C.ar    
  18 C18            4.5252    -2.5727    -2.3219 C.ar    
  19 C19            4.3938    -3.0267    -3.6232 C.ar    
  20 C20            3.1816    -3.5326    -4.0593 C.ar    
  21 C21            2.1017    -3.5841    -3.1938 C.ar    
  22 C22            2.2355    -3.1356    -1.8937 C.ar    
  23 F23            3.0518    -3.9755    -5.3290 F       
  24 F24            5.7077    -2.0783    -1.8949 F       
  25 H25            0.4063     3.0191    -0.6379 H       
  26 H26           -0.2630     0.6531    -0.6068 H       
  27 H27            2.7709     3.6416    -0.3901 H       
  28 H28            6.0173    -1.2862     0.2014 H       
  29 H29            8.6762     2.4586     0.3450 H       
  30 H30            4.3273    -2.7372     0.4811 H       
  31 H31            2.6273    -2.2100     0.4688 H       
  32 H32            5.2364    -2.9858    -4.2975 H       
  33 H33            1.1557    -3.9789    -3.5340 H       
  34 H34            1.3928    -3.1762    -1.2194 H       
@<TRIPOS>BOND
   1    1    2 ar
   2    1    6 ar
   3    1   25 1
   4    2    3 ar
   5    2   26 1
   6    3    4 ar
   7    3   11 1
   8    4    5 ar
   9    4    7 1
  10    5    6 ar
  11    5   10 1
  12    6   27 1
  13    7    8 1
  14    7   16 1
  15    8    9 2
  16    8   28 1
  17    9   10 1
  18    9   13 1
  19   10   12 2
  20   13   14 2
  21   13   15 1
  22   15   29 1
  23   16   17 1
  24   16   30 1
  25   16   31 1
  26   17   18 ar
  27   17   22 ar
  28   18   19 ar
  29   18   24 1
  30   19   20 ar
  31   19   32 1
  32   20   21 ar
  33   20   23 1
  34   21   22 ar
  35   21   33 1
  36   22   34 1

#	End of record

