#	Name: ASD03430311
#	Creating user name:	WinNT
#	Creation time:	15. 06. 2019 20:40

#	Modifying user name:	WinNT
#	Modification time:	15. 06. 2019 20:40

#	Program:	/corina/corina34_cracker 3.40 0067  02.08.2006

@<TRIPOS>MOLECULE
ASD03430311
  55   61    0    0    0
SMALL
NO_CHARGES


@<TRIPOS>ATOM
   1 C1            -0.0166     1.3731     0.0096 C.ar    
   2 C2             0.0021    -0.0041     0.0020 C.ar    
   3 C3             1.2042    -0.6801    -0.0037 C.ar    
   4 C4             2.4064     0.0226     0.0069 C.ar    
   5 C5             2.3789     1.4121     0.0039 C.ar    
   6 C6             1.1699     2.0972     0.0022 C.ar    
   7 O7             3.4725    -0.8269     0.0325 O.3     
   8 C8             1.5601    -2.1417    -0.0330 C.3     
   9 C9             3.0504    -2.1336    -0.4017 C.3     
  10 C10            0.4369    -3.8650     1.0109 C.ar    
  11 C11            1.3140    -2.8180     1.2832 C.ar    
  12 C12            0.7430    -2.9080    -1.0329 C.2     
  13 N13            0.1236    -3.8915    -0.3499 N.am    
  14 O14            0.6571    -2.6857    -2.2222 O.2     
  15 C15            1.7632    -2.5964     2.5654 C.ar    
  16 C16            1.3449    -3.4168     3.5984 C.ar    
  17 C17            0.4739    -4.4591     3.3397 C.ar    
  18 C18            0.0205    -4.6852     2.0566 C.ar    
  19 C19           -0.7732    -4.8739    -0.9637 C.3     
  20 C20           -1.1514     2.3780     0.0353 C.3     
  21 C21           -0.4169     3.6802     0.4334 C.3     
  22 O22            0.9269     3.4375    -0.0164 O.3     
  23 C23           -2.1860    -4.3503    -0.9365 C.ar    
  24 C24           -2.6635    -3.5971    -1.9936 C.ar    
  25 C25           -3.9594    -3.1133    -1.9751 C.ar    
  26 C26           -4.7829    -3.3799    -0.9003 C.ar    
  27 C27           -4.3070    -4.1382     0.1675 C.ar    
  28 C28           -3.0031    -4.6280     0.1409 C.ar    
  29 N29           -4.8707    -5.1222     2.3880 N.2     
  30 C30           -5.1880    -4.4281     1.3262 C.2     
  31 N31           -6.4688    -4.0236     1.4817 N.2     
  32 C32           -6.8510    -4.5026     2.6393 C.2     
  33 O33           -5.8135    -5.1736     3.1494 O.3     
  34 C34           -8.2057    -4.3298     3.2764 C.3     
  35 F35           -9.0446    -5.3767     2.8796 F       
  36 F36           -8.0712    -4.3421     4.6688 F       
  37 F37           -8.7590    -3.1101     2.8721 F       
  38 H38           -0.9264    -0.5557     0.0009 H       
  39 H39            3.3066     1.9651     0.0036 H       
  40 H40            3.1836    -2.2456    -1.4777 H       
  41 H41            3.5871    -2.9132     0.1390 H       
  42 H42            2.4432    -1.7815     2.7654 H       
  43 H43            1.6983    -3.2437     4.6042 H       
  44 H44            0.1473    -5.0993     4.1458 H       
  45 H45           -0.6595    -5.5014     1.8622 H       
  46 H46           -0.4699    -5.0476    -1.9962 H       
  47 H47           -0.7219    -5.8100    -0.4076 H       
  48 H48           -1.6088     2.4743    -0.9494 H       
  49 H49           -1.8955     2.1061     0.7839 H       
  50 H50           -0.8473     4.5392    -0.0813 H       
  51 H51           -0.4426     3.8232     1.5137 H       
  52 H52           -2.0222    -3.3856    -2.8364 H       
  53 H53           -4.3272    -2.5257    -2.8032 H       
  54 H54           -5.7942    -3.0011    -0.8865 H       
  55 H55           -2.6293    -5.2163     0.9659 H       
@<TRIPOS>BOND
   1    1    2 ar
   2    1    6 ar
   3    1   20 1
   4    2    3 ar
   5    2   38 1
   6    3    4 ar
   7    3    8 1
   8    4    5 ar
   9    4    7 1
  10    5    6 ar
  11    5   39 1
  12    6   22 1
  13    7    9 1
  14    8    9 1
  15    8   11 1
  16    8   12 1
  17    9   40 1
  18    9   41 1
  19   10   11 ar
  20   10   13 1
  21   10   18 ar
  22   11   15 ar
  23   12   13 am
  24   12   14 2
  25   13   19 1
  26   15   16 ar
  27   15   42 1
  28   16   17 ar
  29   16   43 1
  30   17   18 ar
  31   17   44 1
  32   18   45 1
  33   19   23 1
  34   19   46 1
  35   19   47 1
  36   20   21 1
  37   20   48 1
  38   20   49 1
  39   21   22 1
  40   21   50 1
  41   21   51 1
  42   23   24 ar
  43   23   28 ar
  44   24   25 ar
  45   24   52 1
  46   25   26 ar
  47   25   53 1
  48   26   27 ar
  49   26   54 1
  50   27   28 ar
  51   27   30 1
  52   28   55 1
  53   29   30 2
  54   29   33 1
  55   30   31 1
  56   31   32 2
  57   32   33 1
  58   32   34 1
  59   34   35 1
  60   34   36 1
  61   34   37 1

#	End of record

