#	Name: ASD01670076
#	Creating user name:	WinNT
#	Creation time:	15. 06. 2019 19:22

#	Modifying user name:	WinNT
#	Modification time:	15. 06. 2019 19:22

#	Program:	/corina/corina34_cracker 3.40 0067  02.08.2006

@<TRIPOS>MOLECULE
ASD01670076
  55   57    0    0    0
SMALL
NO_CHARGES


@<TRIPOS>ATOM
   1 C1            -0.5066     0.3472     0.6475 C.ar    
   2 C2             0.3509     0.2001     1.7231 C.ar    
   3 C3            -0.0468     0.1464    -0.6378 C.ar    
   4 C4             1.6743    -0.1486     1.5181 C.ar    
   5 C5             7.1667    -0.8225     3.0105 C.ar    
   6 C6             7.7049    -0.9438     4.2809 C.ar    
   7 C7             1.2866    -0.2058    -0.8515 C.ar    
   8 C8             5.5951    -2.5729     3.5042 C.ar    
   9 C9             2.1468    -0.3522     0.2382 C.ar    
  10 C10            6.1198    -1.6273     2.6179 C.ar    
  11 C11            7.1969    -1.8752     5.1708 C.ar    
  12 C12            6.1390    -2.6959     4.7886 C.ar    
  13 C13            1.7860    -0.4230    -2.2260 C.2     
  14 C14            4.4745    -3.4359     3.0886 C.2     
  15 C15            6.4273    -2.9161     6.9899 C.3     
  16 C16            0.5175     1.5867    -5.4183 C.3     
  17 C17            1.4860    -2.1042    -4.9186 C.3     
  18 C18            4.5953     0.6928     1.6963 C.3     
  19 C19            3.5884    -0.7313     0.0168 C.3     
  20 C20            5.5400    -1.4881     1.2339 C.3     
  21 C21            0.4823     0.0714    -5.6270 C.3     
  22 C22            1.4258    -0.6030    -4.6291 C.3     
  23 N23            0.9309    -0.3878    -3.2671 N.am    
  24 N24            4.3074    -0.6913     1.2972 N.3     
  25 O25            4.6964    -4.5067     2.5589 O.2     
  26 O26            2.9679    -0.6334    -2.4170 O.2     
  27 O27            3.2042    -3.0371     3.2960 O.3     
  28 O28            7.5457    -2.1841     6.4543 O.3     
  29 O29            5.8254    -3.5179     5.8282 O.3     
  30 H30           -1.5393     0.6154     0.8146 H       
  31 H31           -0.0140     0.3584     2.7272 H       
  32 H32           -0.7173     0.2612    -1.4766 H       
  33 H33            2.3388    -0.2612     2.3620 H       
  34 H34            7.5672    -0.0899     2.3254 H       
  35 H35            8.5258    -0.3084     4.5791 H       
  36 H36            6.7690    -3.6833     7.6847 H       
  37 H37            5.7258    -2.2401     7.4788 H       
  38 H38           -0.1546     2.0671    -6.1293 H       
  39 H39            0.1996     1.8210    -4.4024 H       
  40 H40            1.5327     1.9514    -5.5746 H       
  41 H41            2.1582    -2.5846    -4.2076 H       
  42 H42            0.4886    -2.5330    -4.8224 H       
  43 H43            1.8542    -2.2643    -5.9319 H       
  44 H44            3.6703     1.2695     1.7004 H       
  45 H45            5.0322     0.6996     2.6949 H       
  46 H46            5.2968     1.1363     0.9897 H       
  47 H47            3.6397    -1.7382    -0.3975 H       
  48 H48            4.0462    -0.0284    -0.6791 H       
  49 H49            6.2615    -0.9904     0.5860 H       
  50 H50            5.3136    -2.4764     0.8337 H       
  51 H51           -0.5329    -0.2934    -5.4708 H       
  52 H52            0.8002    -0.1629    -6.6430 H       
  53 H53            2.4232    -0.1741    -4.7253 H       
  54 H54           -0.0122    -0.2199    -3.1146 H       
  55 H55            2.5030    -3.6368     3.0065 H       
@<TRIPOS>BOND
   1    1    2 ar
   2    1    3 ar
   3    1   30 1
   4    2    4 ar
   5    2   31 1
   6    3    7 ar
   7    3   32 1
   8    4    9 ar
   9    4   33 1
  10    5    6 ar
  11    5   10 ar
  12    5   34 1
  13    6   11 ar
  14    6   35 1
  15    7    9 ar
  16    7   13 1
  17    8   10 ar
  18    8   12 ar
  19    8   14 1
  20    9   19 1
  21   10   20 1
  22   11   12 ar
  23   11   28 1
  24   12   29 1
  25   13   23 am
  26   13   26 2
  27   14   25 2
  28   14   27 1
  29   15   28 1
  30   15   29 1
  31   15   36 1
  32   15   37 1
  33   16   21 1
  34   16   38 1
  35   16   39 1
  36   16   40 1
  37   17   22 1
  38   17   41 1
  39   17   42 1
  40   17   43 1
  41   18   24 1
  42   18   44 1
  43   18   45 1
  44   18   46 1
  45   19   24 1
  46   19   47 1
  47   19   48 1
  48   20   24 1
  49   20   49 1
  50   20   50 1
  51   21   22 1
  52   21   51 1
  53   21   52 1
  54   22   23 1
  55   22   53 1
  56   23   54 1
  57   27   55 1

#	End of record

