#	Name: ASD03081159
#	Creating user name:	WinNT
#	Creation time:	15. 06. 2019 20:27

#	Modifying user name:	WinNT
#	Modification time:	15. 06. 2019 20:27

#	Program:	/corina/corina34_cracker 3.40 0067  02.08.2006

@<TRIPOS>MOLECULE
ASD03081159
  36   39    0    0    0
SMALL
NO_CHARGES


@<TRIPOS>ATOM
   1 C1            -0.0162     1.3419     0.0094 C.2     
   2 N2             0.0021    -0.0041     0.0020 N.am    
   3 C3             1.3267    -0.4262    -0.0129 C.ar    
   4 C4             2.1179     0.7272    -0.0143 C.ar    
   5 N5             1.2448     1.8133    -0.0001 N.am    
   6 C6             3.4964     0.6204    -0.0280 C.ar    
   7 C7             4.0928    -0.6415    -0.0405 C.ar    
   8 C8             3.2965    -1.7902    -0.0390 C.ar    
   9 C9             1.9235    -1.6801    -0.0253 C.ar    
  10 O10           -1.0206     2.0286     0.0181 O.2     
  11 O11            6.4505     0.2457    -0.0587 O.3     
  12 N12            7.5797    -0.1963    -0.0719 N.2     
  13 C13            7.5562    -1.5045    -0.0788 C.2     
  14 N14            6.2616    -1.8844    -0.0684 N.2     
  15 C15            5.5647    -0.7629    -0.0557 C.2     
  16 C16            8.5714    -3.7881    -0.1017 C.ar    
  17 C17            8.7364    -2.4048    -0.0954 C.ar    
  18 C18           10.0305    -1.8785    -0.1053 C.ar    
  19 C19           11.0980    -2.7602    -0.1212 C.ar    
  20 C20           10.8513    -4.1207    -0.1266 C.ar    
  21 N21            9.6177    -4.5881    -0.1173 N.ar    
  22 C22            1.6328     3.2260     0.0034 C.3     
  23 C23           -1.1748    -0.8765     0.0086 C.3     
  24 H24            4.1092     1.5098    -0.0294 H       
  25 H25            3.7586    -2.7662    -0.0487 H       
  26 H26            1.3108    -2.5694    -0.0239 H       
  27 H27            7.5766    -4.2083    -0.0896 H       
  28 H28           10.1942    -0.8110    -0.1012 H       
  29 H29           12.1123    -2.3894    -0.1296 H       
  30 H30           11.6814    -4.8115    -0.1389 H       
  31 H31            0.7381     3.8485     0.0154 H       
  32 H32            2.2332     3.4358     0.8886 H       
  33 H33            2.2157     3.4449    -0.8913 H       
  34 H34           -2.0786    -0.2674     0.0200 H       
  35 H35           -1.1689    -1.5012    -0.8847 H       
  36 H36           -1.1524    -1.5102     0.8952 H       
@<TRIPOS>BOND
   1    1    2 am
   2    1    5 am
   3    1   10 2
   4    2    3 1
   5    2   23 1
   6    3    4 ar
   7    3    9 ar
   8    4    5 1
   9    4    6 ar
  10    5   22 1
  11    6    7 ar
  12    6   24 1
  13    7    8 ar
  14    7   15 1
  15    8    9 ar
  16    8   25 1
  17    9   26 1
  18   11   12 1
  19   11   15 1
  20   12   13 2
  21   13   14 1
  22   13   17 1
  23   14   15 2
  24   16   17 ar
  25   16   21 ar
  26   16   27 1
  27   17   18 ar
  28   18   19 ar
  29   18   28 1
  30   19   20 ar
  31   19   29 1
  32   20   21 ar
  33   20   30 1
  34   22   31 1
  35   22   32 1
  36   22   33 1
  37   23   34 1
  38   23   35 1
  39   23   36 1

#	End of record

