#	Name: ASD01910509
#	Creating user name:	WinNT
#	Creation time:	15. 06. 2019 19:56

#	Modifying user name:	WinNT
#	Modification time:	15. 06. 2019 19:56

#	Program:	/corina/corina34_cracker 3.40 0067  02.08.2006

@<TRIPOS>MOLECULE
ASD01910509
  41   44    0    0    0
SMALL
NO_CHARGES


@<TRIPOS>ATOM
   1 O1             0.0277     1.1418     0.1023 O.3     
   2 C2             0.0314    -0.1926    -0.0560 C.2     
   3 N3             1.3020    -0.5598    -0.1371 N.2     
   4 C4             2.0107     0.5731    -0.0238 C.2     
   5 N5             1.1682     1.5541     0.1174 N.2     
   6 C6            -1.1429    -1.0719    -0.1251 C.2     
   7 C7            -2.4501    -0.6795    -0.0400 C.2     
   8 C8            -3.2383    -1.8312    -0.1532 C.2     
   9 C9            -2.4064    -2.8882    -0.3031 C.2     
  10 N10           -1.1250    -2.4364    -0.2930 N.pl3   
  11 C11            3.9330     1.5899    -1.2195 C.3     
  12 C12            3.5130     0.6888    -0.0540 C.3     
  13 C13            4.0048     1.2992     1.2604 C.3     
  14 C14            5.5326     1.3868     1.2439 C.3     
  15 C15            5.9756     2.2958     0.0931 C.3     
  16 N16            5.3862     1.7972    -1.1570 N.am    
  17 C17            6.1639     1.5351    -2.2261 C.2     
  18 C18            7.6023     1.8700    -2.1931 C.ar    
  19 O19            5.6816     1.0230    -3.2176 O.2     
  20 C20            8.5467     0.9926    -2.7267 C.ar    
  21 N21            9.8293     1.2899    -2.6980 N.ar    
  22 C22           10.2719     2.4175    -2.1699 C.ar    
  23 C23            9.3955     3.3417    -1.6196 C.ar    
  24 C24            8.0396     3.0769    -1.6305 C.ar    
  25 F25           11.5983     2.6741    -2.1654 F       
  26 H26           -2.8080     0.3311     0.0907 H       
  27 H27           -4.3172    -1.8693    -0.1259 H       
  28 H28           -2.7105    -3.9184    -0.4163 H       
  29 H29           -0.3304    -2.9854    -0.3828 H       
  30 H30            3.6725     1.1114    -2.1636 H       
  31 H31            3.4232     2.5501    -1.1412 H       
  32 H32            3.9515    -0.3007    -0.1828 H       
  33 H33            3.5850     2.2984     1.3763 H       
  34 H34            3.6860     0.6727     2.0934 H       
  35 H35            5.8836     1.7999     2.1896 H       
  36 H36            5.9527     0.3909     1.1032 H       
  37 H37            5.6323     3.3136     0.2785 H       
  38 H38            7.0627     2.2831     0.0151 H       
  39 H39            8.2230     0.0611    -3.1669 H       
  40 H40            9.7688     4.2599    -1.1908 H       
  41 H41            7.3350     3.7788    -1.2095 H       
@<TRIPOS>BOND
   1    1    2 1
   2    1    5 1
   3    2    3 2
   4    2    6 1
   5    3    4 1
   6    4    5 2
   7    4   12 1
   8    6    7 2
   9    6   10 1
  10    7    8 1
  11    7   26 1
  12    8    9 2
  13    8   27 1
  14    9   10 1
  15    9   28 1
  16   10   29 1
  17   11   12 1
  18   11   16 1
  19   11   30 1
  20   11   31 1
  21   12   13 1
  22   12   32 1
  23   13   14 1
  24   13   33 1
  25   13   34 1
  26   14   15 1
  27   14   35 1
  28   14   36 1
  29   15   16 1
  30   15   37 1
  31   15   38 1
  32   16   17 am
  33   17   18 1
  34   17   19 2
  35   18   20 ar
  36   18   24 ar
  37   20   21 ar
  38   20   39 1
  39   21   22 ar
  40   22   23 ar
  41   22   25 1
  42   23   24 ar
  43   23   40 1
  44   24   41 1

#	End of record

