#	Name: ASD01880704
#	Creating user name:	WinNT
#	Creation time:	15. 06. 2019 19:41

#	Modifying user name:	WinNT
#	Modification time:	15. 06. 2019 19:41

#	Program:	/corina/corina34_cracker 3.40 0067  02.08.2006

@<TRIPOS>MOLECULE
ASD01880704
  38   40    0    0    0
SMALL
NO_CHARGES


@<TRIPOS>ATOM
   1 N1            -0.0158     1.3136     0.0093 N.ar    
   2 C2             0.0021    -0.0041     0.0020 C.ar    
   3 N3             1.1320    -0.6826    -0.0120 N.ar    
   4 C4             2.2987    -0.0566    -0.0197 C.ar    
   5 C5             2.3197     1.3309    -0.0129 C.ar    
   6 C6             1.1114     2.0077     0.0022 C.ar    
   7 C7             3.6255     2.0830    -0.0209 C.3     
   8 O8             3.3659     3.4882    -0.0115 O.3     
   9 C9             4.4430     4.3138    -0.0170 C.ar    
  10 C10            4.2615     5.6934    -0.0084 C.ar    
  11 C11            5.3518     6.5274    -0.0135 C.ar    
  12 C12            6.6470     5.9990    -0.0274 C.ar    
  13 C13            6.8238     4.6127    -0.0355 C.ar    
  14 C14            5.7264     3.7806    -0.0254 C.ar    
  15 C15            5.5043     8.0281    -0.0072 C.3     
  16 N16            6.9474     8.2933    -0.0183 N.am    
  17 C17            7.6029     7.1200    -0.0299 C.2     
  18 O18            8.8128     7.0006    -0.0405 O.2     
  19 Br19           3.9139    -1.0397    -0.0392 Br      
  20 C20            8.2131     4.0292    -0.0510 C.3     
  21 C21            7.8006    10.0735     1.4254 C.3     
  22 C22            7.5711     9.6189    -0.0173 C.3     
  23 H23           -0.9342    -0.5424     0.0081 H       
  24 H24            1.0891     3.0875     0.0079 H       
  25 H25            4.2048     1.8147     0.8626 H       
  26 H26            4.1888     1.8236    -0.9173 H       
  27 H27            3.2640     6.1074     0.0019 H       
  28 H28            5.8637     2.7094    -0.0313 H       
  29 H29            5.0379     8.4558    -0.8947 H       
  30 H30            5.0533     8.4467     0.8925 H       
  31 H31            8.5575     3.8837     0.9729 H       
  32 H32            8.1988     3.0704    -0.5693 H       
  33 H33            8.8880     4.7115    -0.5678 H       
  34 H34            6.8450    10.1212     1.9477 H       
  35 H35            8.4555     9.3634     1.9303 H       
  36 H36            8.2647    11.0598     1.4261 H       
  37 H37            8.5267     9.5712    -0.5396 H       
  38 H38            6.9162    10.3290    -0.5222 H       
@<TRIPOS>BOND
   1    1    2 ar
   2    1    6 ar
   3    2    3 ar
   4    2   23 1
   5    3    4 ar
   6    4    5 ar
   7    4   19 1
   8    5    6 ar
   9    5    7 1
  10    6   24 1
  11    7    8 1
  12    7   25 1
  13    7   26 1
  14    8    9 1
  15    9   10 ar
  16    9   14 ar
  17   10   11 ar
  18   10   27 1
  19   11   12 ar
  20   11   15 1
  21   12   13 ar
  22   12   17 1
  23   13   14 ar
  24   13   20 1
  25   14   28 1
  26   15   16 1
  27   15   29 1
  28   15   30 1
  29   16   17 am
  30   16   22 1
  31   17   18 2
  32   20   31 1
  33   20   32 1
  34   20   33 1
  35   21   22 1
  36   21   34 1
  37   21   35 1
  38   21   36 1
  39   22   37 1
  40   22   38 1

#	End of record

