#	Name: ASD02030339
#	Creating user name:	WinNT
#	Creation time:	15. 06. 2019 20:15

#	Modifying user name:	WinNT
#	Modification time:	15. 06. 2019 20:15

#	Program:	/corina/corina34_cracker 3.40 0067  02.08.2006

@<TRIPOS>MOLECULE
ASD02030339
  48   48    0    0    0
SMALL
NO_CHARGES


@<TRIPOS>ATOM
   1 N1            -0.0367     1.9593     0.2557 N.3     
   2 C2            -0.4861     0.6336    -0.1900 C.3     
   3 C3             0.0678     0.3546    -1.5913 C.3     
   4 N4             1.5267     0.5395    -1.5623 N.am    
   5 C5             2.0586     1.7905    -1.0007 C.3     
   6 C6             1.4263     2.0129     0.3774 C.3     
   7 C7             1.8439     3.3829     0.9156 C.3     
   8 C8             1.3062     4.4788    -0.0068 C.3     
   9 C9             1.1600     1.0585     2.6709 C.3     
  10 C10            1.8991     0.9204     1.3384 C.3     
  11 C11            2.3542    -0.4123    -2.0375 C.2     
  12 O12            1.9045    -1.4795    -2.4066 O.2     
  13 C13            3.8089    -0.1583    -2.1096 C.ar    
  14 C14            4.7135    -1.1625    -1.7624 C.ar    
  15 C15            6.0710    -0.9185    -1.8321 C.ar    
  16 C16            6.5341     0.3192    -2.2449 C.ar    
  17 C17            5.6415     1.3185    -2.5899 C.ar    
  18 C18            4.2832     1.0851    -2.5309 C.ar    
  19 Cl19           7.1987    -2.1658    -1.4007 Cl      
  20 H20           -0.3750     2.6822    -0.3616 H       
  21 H21           -0.1226    -0.1255     0.5026 H       
  22 H22           -1.5755     0.6093    -0.2180 H       
  23 H23           -0.1657    -0.6702    -1.8800 H       
  24 H24           -0.3752     1.0491    -2.3051 H       
  25 H25            3.1412     1.7150    -0.8989 H       
  26 H26            1.8069     2.6230    -1.6577 H       
  27 H27            1.4368     3.5191     1.9175 H       
  28 H28            2.9316     3.4419     0.9543 H       
  29 H29            1.6569     5.4506     0.3407 H       
  30 H30            1.6622     4.3059    -1.0224 H       
  31 H31            0.2164     4.4606     0.0042 H       
  32 H32            1.3189     2.0592     3.0726 H       
  33 H33            0.0938     0.8951     2.5137 H       
  34 H34            1.5407     0.3194     3.3759 H       
  35 H35            1.6902    -0.0585     0.9068 H       
  36 H36            2.9714     1.0225     1.5054 H       
  37 H37            4.3529    -2.1280    -1.4396 H       
  38 H38            7.5966     0.5056    -2.2975 H       
  39 H39            6.0092     2.2821    -2.9105 H       
  40 H40            3.5879     1.8663    -2.8006 H       
  41 C41           14.5718    11.6587     9.5226 C.2     
  42 O42           14.5882    10.4506     9.5159 O.2     
  43 C43           15.8665    12.4299     9.5144 C.3     
  44 O44           13.4004    12.3140     9.5317 O.3     
  45 F45           16.9420    11.5353     9.4993 F       
  46 F46           15.9188    13.2412     8.3759 F       
  47 F47           15.9406    13.2290    10.6603 F       
  48 H48           12.5966    11.7763     9.5326 H       
@<TRIPOS>BOND
   1    1    2 1
   2    1    6 1
   3    1   20 1
   4    2    3 1
   5    2   21 1
   6    2   22 1
   7    3    4 1
   8    3   23 1
   9    3   24 1
  10    4    5 1
  11    4   11 am
  12    5    6 1
  13    5   25 1
  14    5   26 1
  15    6    7 1
  16    6   10 1
  17    7    8 1
  18    7   27 1
  19    7   28 1
  20    8   29 1
  21    8   30 1
  22    8   31 1
  23    9   10 1
  24    9   32 1
  25    9   33 1
  26    9   34 1
  27   10   35 1
  28   10   36 1
  29   11   12 2
  30   11   13 1
  31   13   14 ar
  32   13   18 ar
  33   14   15 ar
  34   14   37 1
  35   15   16 ar
  36   15   19 1
  37   16   17 ar
  38   16   38 1
  39   17   18 ar
  40   17   39 1
  41   18   40 1
  42   41   42 2
  43   41   43 1
  44   41   44 1
  45   43   45 1
  46   43   46 1
  47   43   47 1
  48   44   48 1

#	End of record

