#	Name: ASD04882234
#	Creating user name:	WinNT
#	Creation time:	15. 06. 2019 20:54

#	Modifying user name:	WinNT
#	Modification time:	15. 06. 2019 20:54

#	Program:	/corina/corina34_cracker 3.40 0067  02.08.2006

@<TRIPOS>MOLECULE
ASD04882234
  83   88    0    0    0
SMALL
NO_CHARGES


@<TRIPOS>ATOM
   1 N1            -0.0002     1.3772    -0.2749 N.am    
   2 C2            -0.1691    -0.0124    -0.3114 C.ar    
   3 C3            -1.2238    -0.5698    -1.0395 C.ar    
   4 C4            -1.3928    -1.9488    -1.0767 C.ar    
   5 C5            -0.5218    -2.7713    -0.3966 C.ar    
   6 C6             0.5352    -2.2207     0.3329 C.ar    
   7 C7             0.7104    -0.8340     0.3677 C.ar    
   8 N8            -2.1076     0.2583    -1.7286 N.3     
   9 C9            -2.8984     1.0752    -0.7976 C.3     
  10 C10           -2.9830    -0.5248    -2.6118 C.3     
  11 C11           -3.8817     0.4249    -3.4074 C.3     
  12 N12           -4.6725     1.2418    -2.4764 N.3     
  13 C13           -3.7971     2.0249    -1.5932 C.3     
  14 C14            1.4676    -3.1016     1.0617 C.2     
  15 O15            2.3871    -2.6215     1.6963 O.2     
  16 S16            0.6763     2.0944     1.0557 S.o2    
  17 O17            0.0481     1.5111     2.1889 O.2     
  18 C18            2.3661     1.5982     1.1132 C.ar    
  19 N19            1.3003    -4.4384     1.0242 N.am    
  20 C20            2.2262    -5.3131     1.7479 C.3     
  21 C21            1.8153    -6.7725     1.5420 C.3     
  22 C22            2.7823    -7.6860     2.2978 C.3     
  23 N23            2.3889    -9.0834     2.1007 N.am    
  24 C24            2.8348    -9.8630     1.1006 C.2     
  25 C25            1.4622    -9.8137     2.9734 C.3     
  26 C26            1.0186   -11.0503     2.1606 C.3     
  27 C27            2.2156   -11.2398     1.1985 C.3     
  28 O28            3.6189    -9.5133     0.2440 O.2     
  29 C29           -5.5583     2.0719    -3.1672 C.ar    
  30 C30           -5.0734     3.0095    -4.0699 C.ar    
  31 C31           -6.9269     1.9577    -2.9571 C.ar    
  32 C32           -7.7999     2.7799    -3.6416 C.ar    
  33 C33           -7.3133     3.7160    -4.5359 C.ar    
  34 C34           -5.9522     3.8288    -4.7512 C.ar    
  35 C35           -7.4581     0.9372    -1.9837 C.3     
  36 O36            0.6771     3.4924     0.8012 O.2     
  37 C37            3.2438     1.9605     0.0791 C.ar    
  38 C38            4.6004     1.5549     0.1378 C.ar    
  39 C39            5.0396     0.7952     1.2358 C.ar    
  40 C40            4.1615     0.4619     2.2209 C.ar    
  41 C41            2.8294     0.8659     2.1635 C.ar    
  42 C42            2.8059     2.7212    -1.0214 C.ar    
  43 C43            3.7158     3.0361    -1.9900 C.ar    
  44 C44            5.0355     2.6054    -1.8708 C.ar    
  45 N45            5.4399     1.8968    -0.8449 N.ar    
  46 H46           -0.2757     1.9194    -1.0306 H       
  47 H47           -2.2091    -2.3765    -1.6399 H       
  48 H48           -0.6562    -3.8424    -0.4270 H       
  49 H49            1.5266    -0.4056     0.9303 H       
  50 H50           -3.5153     0.4252    -0.1772 H       
  51 H51           -2.2282     1.6551    -0.1630 H       
  52 H52           -2.3744    -1.1115    -3.2999 H       
  53 H53           -3.6009    -1.1930    -2.0120 H       
  54 H54           -3.2647     1.0749    -4.0279 H       
  55 H55           -4.5519    -0.1550    -4.0420 H       
  56 H56           -4.4057     2.6116    -0.9051 H       
  57 H57           -3.1792     2.6931    -2.1930 H       
  58 H58            0.5668    -4.8213     0.5180 H       
  59 H59            3.2376    -5.1636     1.3700 H       
  60 H60            2.1964    -5.0737     2.8108 H       
  61 H61            0.8039    -6.9219     1.9199 H       
  62 H62            1.8451    -7.0118     0.4790 H       
  63 H63            3.7937    -7.5365     1.9200 H       
  64 H64            2.7525    -7.4466     3.3608 H       
  65 H65            1.9698   -10.1248     3.8865 H       
  66 H66            0.6003    -9.1912     3.2135 H       
  67 H67            0.8984   -11.9195     2.8072 H       
  68 H68            0.1006   -10.8460     1.6095 H       
  69 H69            1.8695   -11.5730     0.2201 H       
  70 H70            2.9301   -11.9505     1.6139 H       
  71 H71           -4.0103     3.0981    -4.2385 H       
  72 H72           -8.8639     2.6916    -3.4788 H       
  73 H73           -7.9983     4.3574    -5.0705 H       
  74 H74           -5.5755     4.5609    -5.4502 H       
  75 H75           -7.5277     1.3833    -0.9916 H       
  76 H76           -8.4468     0.6091    -2.3047 H       
  77 H77           -6.7841     0.0812    -1.9507 H       
  78 H78            6.0697     0.4768     1.2973 H       
  79 H79            4.5037    -0.1222     3.0623 H       
  80 H80            2.1536     0.5881     2.9588 H       
  81 H81            1.7789     3.0465    -1.0979 H       
  82 H82            3.4126     3.6181    -2.8478 H       
  83 H83            5.7441     2.8620    -2.6445 H       
@<TRIPOS>BOND
   1    1    2 1
   2    1   16 am
   3    1   46 1
   4    2    3 ar
   5    2    7 ar
   6    3    4 ar
   7    3    8 1
   8    4    5 ar
   9    4   47 1
  10    5    6 ar
  11    5   48 1
  12    6    7 ar
  13    6   14 1
  14    7   49 1
  15    8    9 1
  16    8   10 1
  17    9   13 1
  18    9   50 1
  19    9   51 1
  20   10   11 1
  21   10   52 1
  22   10   53 1
  23   11   12 1
  24   11   54 1
  25   11   55 1
  26   12   13 1
  27   12   29 1
  28   13   56 1
  29   13   57 1
  30   14   15 2
  31   14   19 am
  32   16   17 2
  33   16   18 1
  34   16   36 2
  35   18   37 ar
  36   18   41 ar
  37   19   20 1
  38   19   58 1
  39   20   21 1
  40   20   59 1
  41   20   60 1
  42   21   22 1
  43   21   61 1
  44   21   62 1
  45   22   23 1
  46   22   63 1
  47   22   64 1
  48   23   24 am
  49   23   25 1
  50   24   28 2
  51   24   27 1
  52   25   26 1
  53   25   65 1
  54   25   66 1
  55   26   27 1
  56   26   67 1
  57   26   68 1
  58   27   69 1
  59   27   70 1
  60   29   30 ar
  61   29   31 ar
  62   30   34 ar
  63   30   71 1
  64   31   32 ar
  65   31   35 1
  66   32   33 ar
  67   32   72 1
  68   33   34 ar
  69   33   73 1
  70   34   74 1
  71   35   75 1
  72   35   76 1
  73   35   77 1
  74   37   38 ar
  75   37   42 ar
  76   38   39 ar
  77   38   45 ar
  78   39   40 ar
  79   39   78 1
  80   40   41 ar
  81   40   79 1
  82   41   80 1
  83   42   43 ar
  84   42   81 1
  85   43   44 ar
  86   43   82 1
  87   44   45 ar
  88   44   83 1

#	End of record

