#	Name: ASD01917005
#	Creating user name:	WinNT
#	Creation time:	15. 06. 2019 20:08

#	Modifying user name:	WinNT
#	Modification time:	15. 06. 2019 20:08

#	Program:	/corina/corina34_cracker 3.40 0067  02.08.2006

@<TRIPOS>MOLECULE
ASD01917005
  46   49    0    0    0
SMALL
NO_CHARGES


@<TRIPOS>ATOM
   1 C1            -0.0171     1.4098     0.0098 C.ar    
   2 C2             0.0021    -0.0041     0.0020 C.ar    
   3 C3            -1.1916    -0.7260     0.0128 C.ar    
   4 C4            -2.3845    -0.0647     0.0321 C.ar    
   5 C5            -2.4220     1.3379     0.0403 C.ar    
   6 C6            -1.2410     2.0761     0.0308 C.ar    
   7 N7             1.1587     2.0866     0.0022 N.2     
   8 C8             2.3039     1.4743    -0.0008 C.2     
   9 N9             2.4092     0.1109    -0.0119 N.am    
  10 C10            1.3116    -0.6724    -0.0152 C.2     
  11 C11           -3.7198     2.0346     0.0610 C.2     
  12 O12            1.4015    -1.8863    -0.0314 O.2     
  13 C13           -4.8618     1.3273     0.0718 C.2     
  14 C14           -6.1597     2.0241     0.0925 C.ar    
  15 C15           -7.3444     1.2835     0.1095 C.ar    
  16 C16            3.5851     2.2787     0.0197 C.3     
  17 C17            4.2185     2.1718     1.4045 C.3     
  18 C18            5.1320     0.9624     1.4986 C.3     
  19 C19            4.3682    -0.3447     1.3706 C.3     
  20 C20            3.7499    -0.4864    -0.0188 C.3     
  21 N21           -6.1952     3.3531     0.1003 N.ar    
  22 C22           -7.3350     4.0124     0.1187 C.ar    
  23 C23           -8.5445     3.3414     0.1311 C.ar    
  24 C24           -8.5545     1.9530     0.1287 C.ar    
  25 C25            5.0319     3.4374     1.6830 C.3     
  26 F26            6.0856     1.0330     0.4774 F       
  27 F27            5.7895     0.9850     2.7333 F       
  28 H28           -1.1713    -1.8057     0.0054 H       
  29 H29           -3.3076    -0.6253     0.0408 H       
  30 H30           -1.2734     3.1556     0.0364 H       
  31 H31           -3.7531     3.1141     0.0674 H       
  32 H32           -4.8284     0.2478     0.0654 H       
  33 H33           -7.3156     0.2038     0.1072 H       
  34 H34            4.2743     1.8857    -0.7278 H       
  35 H35            3.3634     3.3230    -0.2002 H       
  36 H36            3.4303     2.0832     2.1520 H       
  37 H37            5.0508    -1.1764     1.5448 H       
  38 H38            3.5760    -0.3708     2.1188 H       
  39 H39            3.6771    -1.5423    -0.2792 H       
  40 H40            4.3742     0.0279    -0.7495 H       
  41 H41           -7.3253     5.0924     0.1245 H       
  42 H42           -9.4731     3.8927     0.1465 H       
  43 H43           -9.4868     1.4078     0.1382 H       
  44 H44            4.3752     4.3066     1.6466 H       
  45 H45            5.4868     3.3669     2.6709 H       
  46 H46            5.8130     3.5404     0.9297 H       
@<TRIPOS>BOND
   1    1    2 ar
   2    1    7 1
   3    1    6 ar
   4    2    3 ar
   5    2   10 1
   6    3    4 ar
   7    3   28 1
   8    4    5 ar
   9    4   29 1
  10    5    6 ar
  11    5   11 1
  12    6   30 1
  13    7    8 2
  14    8    9 1
  15    8   16 1
  16    9   10 am
  17    9   20 1
  18   10   12 2
  19   11   13 2
  20   11   31 1
  21   13   14 1
  22   13   32 1
  23   14   21 ar
  24   14   15 ar
  25   15   24 ar
  26   15   33 1
  27   16   17 1
  28   16   34 1
  29   16   35 1
  30   17   18 1
  31   17   25 1
  32   17   36 1
  33   18   19 1
  34   18   26 1
  35   18   27 1
  36   19   20 1
  37   19   37 1
  38   19   38 1
  39   20   39 1
  40   20   40 1
  41   21   22 ar
  42   22   23 ar
  43   22   41 1
  44   23   24 ar
  45   23   42 1
  46   24   43 1
  47   25   44 1
  48   25   45 1
  49   25   46 1

#	End of record

