#	Name: ASD02770101
#	Creating user name:	WinNT
#	Creation time:	15. 06. 2019 20:26

#	Modifying user name:	WinNT
#	Modification time:	15. 06. 2019 20:26

#	Program:	/corina/corina34_cracker 3.40 0067  02.08.2006

@<TRIPOS>MOLECULE
ASD02770101
  27   28    0    0    0
SMALL
NO_CHARGES


@<TRIPOS>ATOM
   1 N1            -0.0170     1.4002     0.0097 N.pl3   
   2 N2             0.0021    -0.0041     0.0020 N.2     
   3 C3             1.2664    -0.3695    -0.0120 C.2     
   4 N4             2.0330     0.7172    -0.0135 N.2     
   5 C5             1.2762     1.7976    -0.0005 C.2     
   6 C6             1.7556     3.1938     0.0024 C.2     
   7 O7             0.9570     4.1110     0.0150 O.2     
   8 N8             3.0784     3.4521    -0.0088 N.am    
   9 N9             3.5334     4.7772    -0.0060 N.2     
  10 C10            4.8075     5.0260    -0.0169 C.2     
  11 C11            5.2863     6.4203    -0.0139 C.ar    
  12 C12            4.3708     7.4773     0.0005 C.ar    
  13 C13            4.8265     8.7800     0.0036 C.ar    
  14 C14            6.1865     9.0408    -0.0075 C.ar    
  15 C15            7.0980     7.9982    -0.0218 C.ar    
  16 C16            6.6566     6.6915    -0.0197 C.ar    
  17 Cl17           6.7516    10.6823    -0.0041 Cl      
  18 Cl18           2.6657     7.1517     0.0138 Cl      
  19 N19            1.7284    -1.6861    -0.0231 N.pl3   
  20 H20           -0.8010     1.9713     0.0167 H       
  21 H21            3.7153     2.7206    -0.0188 H       
  22 H22            5.5167     4.2115    -0.0280 H       
  23 H23            4.1211     9.5977     0.0144 H       
  24 H24            8.1572     8.2088    -0.0308 H       
  25 H25            7.3689     5.8798    -0.0267 H       
  26 H26            1.0964    -2.4220    -0.0210 H       
  27 H27            2.6816    -1.8655    -0.0328 H       
@<TRIPOS>BOND
   1    1    2 1
   2    1    5 1
   3    1   20 1
   4    2    3 2
   5    3    4 1
   6    3   19 1
   7    4    5 2
   8    5    6 1
   9    6    7 2
  10    6    8 am
  11    8    9 1
  12    8   21 1
  13    9   10 2
  14   10   11 1
  15   10   22 1
  16   11   12 ar
  17   11   16 ar
  18   12   13 ar
  19   12   18 1
  20   13   14 ar
  21   13   23 1
  22   14   15 ar
  23   14   17 1
  24   15   16 ar
  25   15   24 1
  26   16   25 1
  27   19   26 1
  28   19   27 1

#	End of record

