#	Name: ASD07300615
#	Creating user name:	WinNT
#	Creation time:	15. 06. 2019 21:10

#	Modifying user name:	WinNT
#	Modification time:	15. 06. 2019 21:10

#	Program:	/corina/corina34_cracker 3.40 0067  02.08.2006

@<TRIPOS>MOLECULE
ASD07300615
  46   49    0    0    0
SMALL
NO_CHARGES


@<TRIPOS>ATOM
   1 C1             0.0994     1.2825    -0.0725 C.2     
   2 C2             0.0747    -0.1337    -0.1281 C.2     
   3 N3             1.3124     1.9209    -0.1172 N.pl3   
   4 N4             1.2073    -0.8011    -0.2207 N.2     
   5 C5             2.3841    -0.1686    -0.2635 C.2     
   6 C6             2.4583     1.1767    -0.2132 C.2     
   7 N7            -0.8522     2.1969     0.0248 N.2     
   8 C8            -0.3051     3.4084     0.0390 C.2     
   9 C9             1.0633     3.2648    -0.0486 C.2     
  10 N10           -1.1331    -0.8123    -0.0849 N.pl3   
  11 C11           -1.1895    -2.2710    -0.2706 C.3     
  12 C12           -2.0047    -2.8736     0.8794 C.3     
  13 O13           -3.2603    -2.1963     0.9716 O.3     
  14 C14           -3.1532    -0.8040     1.2779 C.3     
  15 C15           -2.3962    -0.0962     0.1540 C.3     
  16 C16            1.7499     5.6153     0.4365 C.ar    
  17 C17            2.0659     4.3503    -0.0630 C.ar    
  18 C18            3.3488     4.1278    -0.5773 C.ar    
  19 C19            4.2506     5.1774    -0.5672 C.ar    
  20 C20            3.8597     6.4011    -0.0544 C.ar    
  21 N21            2.6435     6.5823     0.4239 N.ar    
  22 C22            4.8393     7.5462    -0.0415 C.3     
  23 C23            4.2267     8.7497    -0.7606 C.3     
  24 O24            5.1556     9.8355    -0.7483 O.3     
  25 C25            4.6790    11.0155    -1.3981 C.3     
  26 H26            3.2933    -0.7466    -0.3392 H       
  27 H27            3.4200     1.6669    -0.2490 H       
  28 H28           -0.8401     4.3439     0.1102 H       
  29 H29           -1.6698    -2.5018    -1.2214 H       
  30 H30           -0.1799    -2.6818    -0.2595 H       
  31 H31           -2.1756    -3.9330     0.6884 H       
  32 H32           -1.4576    -2.7551     1.8146 H       
  33 H33           -4.1504    -0.3745     1.3736 H       
  34 H34           -2.6103    -0.6780     2.2146 H       
  35 H35           -2.1854     0.9326     0.4461 H       
  36 H36           -3.0001    -0.1043    -0.7534 H       
  37 H37            0.7629     5.8034     0.8324 H       
  38 H38            3.6276     3.1617    -0.9714 H       
  39 H39            5.2493     5.0424    -0.9554 H       
  40 H40            5.0683     7.8168     0.9893 H       
  41 H41            5.7554     7.2464    -0.5505 H       
  42 H42            3.9977     8.4791    -1.7914 H       
  43 H43            3.3106     9.0494    -0.2516 H       
  44 H44            4.4594    10.7920    -2.4421 H       
  45 H45            3.7723    11.3623    -0.9023 H       
  46 H46            5.4416    11.7925    -1.3456 H       
@<TRIPOS>BOND
   1    1    2 1
   2    1    3 1
   3    1    7 2
   4    2    4 2
   5    2   10 1
   6    3    6 1
   7    3    9 1
   8    4    5 1
   9    5    6 2
  10    5   26 1
  11    6   27 1
  12    7    8 1
  13    8    9 2
  14    8   28 1
  15    9   17 1
  16   10   11 1
  17   10   15 1
  18   11   12 1
  19   11   29 1
  20   11   30 1
  21   12   13 1
  22   12   31 1
  23   12   32 1
  24   13   14 1
  25   14   15 1
  26   14   33 1
  27   14   34 1
  28   15   35 1
  29   15   36 1
  30   16   17 ar
  31   16   21 ar
  32   16   37 1
  33   17   18 ar
  34   18   19 ar
  35   18   38 1
  36   19   20 ar
  37   19   39 1
  38   20   21 ar
  39   20   22 1
  40   22   23 1
  41   22   40 1
  42   22   41 1
  43   23   24 1
  44   23   42 1
  45   23   43 1
  46   24   25 1
  47   25   44 1
  48   25   45 1
  49   25   46 1

#	End of record

