#	Name: ASD01883712
#	Creating user name:	WinNT
#	Creation time:	15. 06. 2019 19:46

#	Modifying user name:	WinNT
#	Modification time:	15. 06. 2019 19:46

#	Program:	/corina/corina34_cracker 3.40 0067  02.08.2006

@<TRIPOS>MOLECULE
ASD01883712
  49   51    0    0    0
SMALL
NO_CHARGES


@<TRIPOS>ATOM
   1 N1             0.0771     1.4081     0.6742 N.ar    
   2 C2             0.0568     0.0907     0.6019 C.ar    
   3 C3             1.2257    -0.6290     0.4652 C.ar    
   4 C4             2.4417     0.0578     0.4035 C.ar    
   5 C5             2.4169     1.4528     0.4838 C.ar    
   6 C6             1.2027     2.0940     0.6198 C.ar    
   7 C7             3.7238    -0.6745     0.2572 C.2     
   8 C8             3.8654    -2.0620     0.0684 C.2     
   9 C9             5.1941    -2.3356    -0.0199 C.2     
  10 N10            5.8671    -1.1617     0.1087 N.pl3   
  11 N11            4.9258    -0.1383     0.2758 N.2     
  12 C12            1.1619     3.5979     0.7075 C.3     
  13 C13            7.3223    -0.9956     0.0742 C.3     
  14 C14            7.7871    -0.8708    -1.3781 C.3     
  15 O15            7.2562     0.3279    -1.9468 O.3     
  16 N16            5.7634    -3.5926    -0.2079 N.pl3   
  17 C17            6.1910    -4.3376     0.8939 C.ar    
  18 C18            6.6654    -5.6314     0.7174 C.ar    
  19 C19            7.0882    -6.3661     1.8080 C.ar    
  20 C20            7.0395    -5.8164     3.0753 C.ar    
  21 C21            6.5671    -4.5265     3.2561 C.ar    
  22 C22            6.1479    -3.7841     2.1672 C.ar    
  23 C23            9.3157    -0.8226    -1.4220 C.3     
  24 C24            5.9139    -4.1337    -1.5610 C.3     
  25 C25            7.5007    -6.6217     4.2627 C.3     
  26 F26            7.9295    -7.8822     3.8331 F       
  27 F27            8.5593    -5.9588     4.8929 F       
  28 F28            6.4415    -6.7717     5.1642 F       
  29 F29            6.5204    -3.9922     4.4961 F       
  30 H30           -0.8875    -0.4311     0.6509 H       
  31 H31            1.2017    -1.7071     0.4071 H       
  32 H32            3.3346     2.0205     0.4403 H       
  33 H33            3.0620    -2.7811     0.0055 H       
  34 H34            1.2363     3.9031     1.7513 H       
  35 H35            1.9965     4.0174     0.1459 H       
  36 H36            0.2232     3.9609     0.2889 H       
  37 H37            7.5983    -0.0950     0.6227 H       
  38 H38            7.7979    -1.8616     0.5348 H       
  39 H39            7.4342    -1.7305    -1.9477 H       
  40 H40            7.5295     1.1348    -1.4894 H       
  41 H41            6.7034    -6.0626    -0.2721 H       
  42 H42            7.4569    -7.3719     1.6703 H       
  43 H43            5.7796    -2.7786     2.3077 H       
  44 H44            9.7207    -1.7369    -0.9882 H       
  45 H45            9.6469    -0.7336    -2.4567 H       
  46 H46            9.6686     0.0372    -0.8524 H       
  47 H47            6.9167    -3.9176    -1.9293 H       
  48 H48            5.7591    -5.2124    -1.5402 H       
  49 H49            5.1777    -3.6736    -2.2202 H       
@<TRIPOS>BOND
   1    1    2 ar
   2    1    6 ar
   3    2    3 ar
   4    2   30 1
   5    3    4 ar
   6    3   31 1
   7    4    5 ar
   8    4    7 1
   9    5    6 ar
  10    5   32 1
  11    6   12 1
  12    7    8 1
  13    7   11 2
  14    8    9 2
  15    8   33 1
  16    9   10 1
  17    9   16 1
  18   10   11 1
  19   10   13 1
  20   12   34 1
  21   12   35 1
  22   12   36 1
  23   13   14 1
  24   13   37 1
  25   13   38 1
  26   14   15 1
  27   14   23 1
  28   14   39 1
  29   15   40 1
  30   16   17 1
  31   16   24 1
  32   17   18 ar
  33   17   22 ar
  34   18   19 ar
  35   18   41 1
  36   19   20 ar
  37   19   42 1
  38   20   21 ar
  39   20   25 1
  40   21   22 ar
  41   21   29 1
  42   22   43 1
  43   23   44 1
  44   23   45 1
  45   23   46 1
  46   24   47 1
  47   24   48 1
  48   24   49 1
  49   25   26 1
  50   25   27 1
  51   25   28 1

#	End of record

