#	Name: ASD01910250
#	Creating user name:	WinNT
#	Creation time:	15. 06. 2019 19:55

#	Modifying user name:	WinNT
#	Modification time:	15. 06. 2019 19:55

#	Program:	/corina/corina34_cracker 3.40 0067  02.08.2006

@<TRIPOS>MOLECULE
ASD01910250
  47   50    0    0    0
SMALL
NO_CHARGES


@<TRIPOS>ATOM
   1 C1            -0.0157     1.3055     0.0092 C.2     
   2 C2             1.1844     2.2170     0.0027 C.3     
   3 C3             1.1430     3.1071    -1.2416 C.3     
   4 C4             2.3783     4.0102    -1.2662 C.3     
   5 C5             2.3722     4.9108    -0.0270 C.3     
   6 N6             2.2656     4.0666     1.1707 N.am    
   7 C7             1.1647     3.0973     1.2562 C.3     
   8 C8             3.1608     4.1790     2.1720 C.2     
   9 C9             4.2845     5.1780     2.0694 C.3     
  10 O10            3.0620     3.4763     3.1555 O.2     
  11 N11            0.0021    -0.0041     0.0020 N.2     
  12 C12           -1.2954    -0.3850     0.0132 C.2     
  13 N13           -2.0176     0.7053     0.0264 N.2     
  14 O14           -1.2982     1.6817     0.0294 O.3     
  15 C15           -1.8043    -1.7788     0.0102 C.ar    
  16 C16           -3.1765    -2.0217     0.0229 C.ar    
  17 C17           -3.6454    -3.3191     0.0196 C.ar    
  18 C18           -2.7541    -4.3799     0.0035 C.ar    
  19 C19           -1.3890    -4.1429    -0.0092 C.ar    
  20 C20           -0.9116    -2.8486    -0.0113 C.ar    
  21 F21           -3.2175    -5.6490     0.0008 F       
  22 C22            5.1370     5.1041     3.3099 C.ar    
  23 C23            6.2166     4.2418     3.3557 C.ar    
  24 C24            6.9994     4.1736     4.4925 C.ar    
  25 C25            6.7021     4.9693     5.5860 C.ar    
  26 C26            5.6206     5.8326     5.5389 C.ar    
  27 C27            4.8424     5.9029     4.3991 C.ar    
  28 F28            7.4664     4.9031     6.6980 F       
  29 H29            2.0955     1.6188    -0.0081 H       
  30 H30            1.1321     2.4824    -2.1348 H       
  31 H31            0.2437     3.7225    -1.2181 H       
  32 H32            3.2785     3.3955    -1.2647 H       
  33 H33            2.3601     4.6272    -2.1645 H       
  34 H34            3.2978     5.4851     0.0119 H       
  35 H35            1.5204     5.5894    -0.0727 H       
  36 H36            0.2145     3.6280     1.3152 H       
  37 H37            1.2937     2.4751     2.1418 H       
  38 H38            4.8944     4.9502     1.1953 H       
  39 H39            3.8706     6.1817     1.9722 H       
  40 H40           -3.8719    -1.1954     0.0358 H       
  41 H41           -4.7087    -3.5082     0.0298 H       
  42 H42           -0.6977    -4.9726    -0.0217 H       
  43 H43            0.1526    -2.6647    -0.0213 H       
  44 H44            6.4481     3.6210     2.5028 H       
  45 H45            7.8425     3.4996     4.5282 H       
  46 H46            5.3878     6.4537     6.3912 H       
  47 H47            3.9987     6.5762     4.3621 H       
@<TRIPOS>BOND
   1    1   11 2
   2    1    2 1
   3    1   14 1
   4    2    3 1
   5    2    7 1
   6    2   29 1
   7    3    4 1
   8    3   30 1
   9    3   31 1
  10    4    5 1
  11    4   32 1
  12    4   33 1
  13    5    6 1
  14    5   34 1
  15    5   35 1
  16    6    7 1
  17    6    8 am
  18    7   36 1
  19    7   37 1
  20    8    9 1
  21    8   10 2
  22    9   22 1
  23    9   38 1
  24    9   39 1
  25   11   12 1
  26   12   13 2
  27   12   15 1
  28   13   14 1
  29   15   16 ar
  30   15   20 ar
  31   16   17 ar
  32   16   40 1
  33   17   18 ar
  34   17   41 1
  35   18   19 ar
  36   18   21 1
  37   19   20 ar
  38   19   42 1
  39   20   43 1
  40   22   23 ar
  41   22   27 ar
  42   23   24 ar
  43   23   44 1
  44   24   25 ar
  45   24   45 1
  46   25   26 ar
  47   25   28 1
  48   26   27 ar
  49   26   46 1
  50   27   47 1

#	End of record

