#	Name: ASD04590468
#	Creating user name:	WinNT
#	Creation time:	15. 06. 2019 20:50

#	Modifying user name:	WinNT
#	Modification time:	15. 06. 2019 20:50

#	Program:	/corina/corina34_cracker 3.40 0067  02.08.2006

@<TRIPOS>MOLECULE
ASD04590468
  64   68    0    0    0
SMALL
NO_CHARGES


@<TRIPOS>ATOM
   1 C1             0.7852     2.1860    -1.7765 C.ar    
   2 C2             0.6541     0.8149    -1.6075 C.ar    
   3 C3             3.0264     0.6076    -1.3716 C.ar    
   4 C4             3.1592     1.9968    -1.5433 C.ar    
   5 C5             2.0303     2.7784    -1.7452 C.ar    
   6 N6             4.2731     0.1047    -1.1968 N.2     
   7 C7             5.1515     1.0768    -1.2486 C.2     
   8 N8             4.5115     2.2683    -1.4614 N.pl3   
   9 C9             6.6121     0.9112    -1.0997 C.2     
  10 C10            7.2923    -0.3089    -0.8801 C.2     
  11 C11            8.6176    -0.0349    -0.8012 C.2     
  12 N12            8.7762     1.3050    -0.9639 N.pl3   
  13 N13            7.5109     1.8745    -1.1539 N.2     
  14 N14            6.7010    -1.5771    -0.7640 N.am    
  15 C15            7.4711    -2.6631    -0.5543 C.2     
  16 O16            8.6832    -2.5592    -0.5582 O.2     
  17 C17            1.7535     0.0292    -1.4072 C.ar    
  18 C18           -0.7150     0.1864    -1.6449 C.3     
  19 N19           -1.0398    -0.1980    -3.0251 N.3     
  20 C20           -2.2557    -1.0231    -3.0699 C.3     
  21 C21            0.0883    -0.8980    -3.6564 C.3     
  22 C22           -0.2699    -1.2264    -5.1082 C.3     
  23 O23           -1.4711    -2.0022    -5.1337 O.3     
  24 C24           -2.5905    -1.3503    -4.5275 C.3     
  25 C25            6.8458    -3.9744    -0.3207 C.2     
  26 N26            7.4828    -5.1770    -0.2021 N.pl3   
  27 N27            6.6178    -6.1054    -0.0033 N.2     
  28 C28            5.4044    -5.6159     0.0237 C.2     
  29 C29            5.4948    -4.2358    -0.1711 C.2     
  30 C30            4.1354    -6.4011     0.2335 C.3     
  31 C31            8.9314    -5.3773    -0.2891 C.3     
  32 C32            9.6232    -4.5877     0.8239 C.3     
  33 C33            9.2507    -6.8654    -0.1330 C.3     
  34 C34            9.4331    -4.8879    -1.6492 C.3     
  35 H35           -0.0934     2.7928    -1.9382 H       
  36 H36            2.1264     3.8459    -1.8777 H       
  37 H37            4.9295     3.1400    -1.5405 H       
  38 H38            9.4070    -0.7536    -0.6379 H       
  39 H39            9.6199     1.7835    -0.9532 H       
  40 H40            5.7382    -1.6716    -0.8347 H       
  41 H41            1.6399    -1.0367    -1.2761 H       
  42 H42           -0.7259    -0.6989    -1.0091 H       
  43 H43           -1.4534     0.9022    -1.2838 H       
  44 H44           -2.0883    -1.9483    -2.5184 H       
  45 H45           -3.0840    -0.4755    -2.6203 H       
  46 H46            0.9711    -0.2589    -3.6350 H       
  47 H47            0.2932    -1.8211    -3.1143 H       
  48 H48           -0.4224    -0.3011    -5.6638 H       
  49 H49            0.5407    -1.7956    -5.5633 H       
  50 H50           -3.4582    -2.0091    -4.5627 H       
  51 H51           -2.8104    -0.4286    -5.0662 H       
  52 H52            4.6827    -3.5247    -0.2047 H       
  53 H53            3.9091    -6.4482     1.2987 H       
  54 H54            3.3146    -5.9120    -0.2911 H       
  55 H55            4.2646    -7.4112    -0.1555 H       
  56 H56            9.4462    -5.0781     1.7812 H       
  57 H57           10.6949    -4.5477     0.6289 H       
  58 H58            9.2214    -3.5750     0.8547 H       
  59 H59            8.7579    -7.4279    -0.9260 H       
  60 H60           10.3286    -7.0145    -0.1978 H       
  61 H61            8.8933    -7.2141     0.8359 H       
  62 H62            9.2705    -3.8132    -1.7312 H       
  63 H63           10.4977    -5.1025    -1.7424 H       
  64 H64            8.8885    -5.3994    -2.4428 H       
@<TRIPOS>BOND
   1    1    2 ar
   2    1    5 ar
   3    1   35 1
   4    2   17 ar
   5    2   18 1
   6    3    4 ar
   7    3    6 1
   8    3   17 ar
   9    4    5 ar
  10    4    8 1
  11    5   36 1
  12    6    7 2
  13    7    8 1
  14    7    9 1
  15    8   37 1
  16    9   10 1
  17    9   13 2
  18   10   11 2
  19   10   14 1
  20   11   12 1
  21   11   38 1
  22   12   13 1
  23   12   39 1
  24   14   15 am
  25   14   40 1
  26   15   16 2
  27   15   25 1
  28   17   41 1
  29   18   19 1
  30   18   42 1
  31   18   43 1
  32   19   20 1
  33   19   21 1
  34   20   24 1
  35   20   44 1
  36   20   45 1
  37   21   22 1
  38   21   46 1
  39   21   47 1
  40   22   23 1
  41   22   48 1
  42   22   49 1
  43   23   24 1
  44   24   50 1
  45   24   51 1
  46   25   26 1
  47   25   29 2
  48   26   27 1
  49   26   31 1
  50   27   28 2
  51   28   29 1
  52   28   30 1
  53   29   52 1
  54   30   53 1
  55   30   54 1
  56   30   55 1
  57   31   32 1
  58   31   33 1
  59   31   34 1
  60   32   56 1
  61   32   57 1
  62   32   58 1
  63   33   59 1
  64   33   60 1
  65   33   61 1
  66   34   62 1
  67   34   63 1
  68   34   64 1

#	End of record

