#	Name: ASD03430152
#	Creating user name:	WinNT
#	Creation time:	15. 06. 2019 20:40

#	Modifying user name:	WinNT
#	Modification time:	15. 06. 2019 20:40

#	Program:	/corina/corina34_cracker 3.40 0067  02.08.2006

@<TRIPOS>MOLECULE
ASD03430152
  49   54    0    0    0
SMALL
NO_CHARGES


@<TRIPOS>ATOM
   1 C1             0.0048     1.3487     0.1006 C.ar    
   2 C2             0.0153    -0.0359     0.0819 C.ar    
   3 C3             1.2127    -0.7204     0.0749 C.ar    
   4 C4             2.4225    -0.0331     0.0981 C.ar    
   5 C5             2.4092     1.3584     0.1122 C.ar    
   6 C6             1.2097     2.0476     0.1131 C.ar    
   7 O7             3.4798    -0.8945     0.1155 O.3     
   8 C8             1.5529    -2.1861     0.0303 C.3     
   9 C9             3.0435    -2.1912    -0.3357 C.3     
  10 C10            0.4026    -3.9032     1.0543 C.ar    
  11 C11            1.2953    -2.8729     1.3385 C.ar    
  12 C12            0.7276    -2.9308    -0.9796 C.2     
  13 N13            0.0906    -3.9102    -0.3074 N.am    
  14 O14            0.6493    -2.6966    -2.1670 O.2     
  15 C15            1.7474    -2.6723     2.6238 C.ar    
  16 C16            1.3153    -3.4971     3.6471 C.ar    
  17 C17            0.4284    -4.5232     3.3762 C.ar    
  18 C18           -0.0272    -4.7285     2.0906 C.ar    
  19 O19           -1.0228     2.2481     0.1047 O.3     
  20 C20           -0.4413     3.4938     0.5328 C.3     
  21 O21            0.9362     3.3855     0.1244 O.3     
  22 C22           -0.8224    -4.8706    -0.9321 C.3     
  23 C23           -2.2260    -4.3229    -0.9010 C.2     
  24 O24           -2.4424    -3.2371    -0.4056 O.2     
  25 N25           -3.2408    -5.0396    -1.4235 N.am    
  26 C26           -4.5593    -4.5870    -1.2897 C.ar    
  27 C27           -4.9473    -3.9035    -0.1461 C.ar    
  28 C28           -6.2489    -3.4576    -0.0169 C.ar    
  29 C29           -7.1654    -3.6916    -1.0250 C.ar    
  30 C30           -6.7837    -4.3728    -2.1667 C.ar    
  31 C31           -5.4815    -4.8164    -2.3053 C.ar    
  32 F32           -5.1085    -5.4817    -3.4204 F       
  33 H33           -0.9168    -0.5814     0.0731 H       
  34 H34            3.3413     1.9038     0.1228 H       
  35 H35            3.1772    -2.2915    -1.4128 H       
  36 H36            3.5700    -2.9836     0.1963 H       
  37 H37            2.4401    -1.8706     2.8331 H       
  38 H38            1.6700    -3.3403     4.6550 H       
  39 H39            0.0911    -5.1669     4.1751 H       
  40 H40           -0.7198    -5.5317     1.8869 H       
  41 H41           -0.9227     4.3335     0.0315 H       
  42 H42           -0.5155     3.5991     1.6151 H       
  43 H43           -0.5209    -5.0389    -1.9660 H       
  44 H44           -0.7879    -5.8131    -0.3857 H       
  45 H45           -3.0579    -5.8689    -1.8923 H       
  46 H46           -4.2326    -3.7205     0.6427 H       
  47 H47           -6.5507    -2.9257     0.8732 H       
  48 H48           -8.1819    -3.3421    -0.9207 H       
  49 H49           -7.5022    -4.5543    -2.9523 H       
@<TRIPOS>BOND
   1    1    2 ar
   2    1    6 ar
   3    1   19 1
   4    2    3 ar
   5    2   33 1
   6    3    4 ar
   7    3    8 1
   8    4    5 ar
   9    4    7 1
  10    5    6 ar
  11    5   34 1
  12    6   21 1
  13    7    9 1
  14    8    9 1
  15    8   11 1
  16    8   12 1
  17    9   35 1
  18    9   36 1
  19   10   11 ar
  20   10   13 1
  21   10   18 ar
  22   11   15 ar
  23   12   13 am
  24   12   14 2
  25   13   22 1
  26   15   16 ar
  27   15   37 1
  28   16   17 ar
  29   16   38 1
  30   17   18 ar
  31   17   39 1
  32   18   40 1
  33   19   20 1
  34   20   21 1
  35   20   41 1
  36   20   42 1
  37   22   23 1
  38   22   43 1
  39   22   44 1
  40   23   24 2
  41   23   25 am
  42   25   26 1
  43   25   45 1
  44   26   27 ar
  45   26   31 ar
  46   27   28 ar
  47   27   46 1
  48   28   29 ar
  49   28   47 1
  50   29   30 ar
  51   29   48 1
  52   30   31 ar
  53   30   49 1
  54   31   32 1

#	End of record

