#	Name: ASD01208864
#	Creating user name:	WinNT
#	Creation time:	15. 06. 2019 19:10

#	Modifying user name:	WinNT
#	Modification time:	15. 06. 2019 19:10

#	Program:	/corina/corina34_cracker 3.40 0067  02.08.2006

@<TRIPOS>MOLECULE
ASD01208864
  54   56    0    0    0
SMALL
NO_CHARGES


@<TRIPOS>ATOM
   1 C1            -0.1485     0.8500     2.3618 C.2     
   2 C2            -0.0887    -0.4377     1.6397 C.ar    
   3 C3            -1.2595    -1.0242     1.1566 C.ar    
   4 C4            -1.1987    -2.2313     0.4803 C.ar    
   5 C5             0.0240    -2.8575     0.2827 C.ar    
   6 C6             1.1899    -2.2783     0.7615 C.ar    
   7 C7             1.1391    -1.0681     1.4336 C.ar    
   8 O8             0.8715     1.3589     2.7815 O.2     
   9 O9            -1.3335     1.4623     2.5499 O.3     
  10 O10            2.3845    -2.8961     0.5657 O.3     
  11 C11            2.3645    -4.1380    -0.1408 C.3     
  12 C12            3.7692    -4.6703    -0.2611 C.ar    
  13 C13            4.2799    -5.5010     0.7187 C.ar    
  14 C14            5.5684    -5.9891     0.6085 C.ar    
  15 C15            6.3462    -5.6470    -0.4819 C.ar    
  16 C16            5.8353    -4.8170    -1.4622 C.ar    
  17 C17            4.5452    -4.3323    -1.3541 C.ar    
  18 O18           -2.3380    -2.8036     0.0098 O.3     
  19 C19           -3.4968    -2.1078     0.1294 C.ar    
  20 C20           -3.8851    -1.2296    -0.8758 C.ar    
  21 C21           -5.0600    -0.5214    -0.7579 C.ar    
  22 C22           -5.8627    -0.6868     0.3739 C.ar    
  23 C23           -5.4692    -1.5708     1.3820 C.ar    
  24 C24           -4.2955    -2.2793     1.2543 C.ar    
  25 C25           -7.1227     0.0708     0.5045 C.2     
  26 O26           -7.4634     0.8399    -0.3734 O.2     
  27 N27           -7.8956    -0.0900     1.5968 N.am    
  28 N28           -9.0916     0.6291     1.7208 N.am    
  29 C29           -9.8645     0.4683     2.8131 C.2     
  30 O30           -9.5247    -0.2989     3.6888 O.2     
  31 C31          -11.1510     1.2417     2.9464 C.3     
  32 C32           -1.3168     2.7243     3.2678 C.3     
  33 H33           -2.2114    -0.5377     1.3102 H       
  34 H34            0.0678    -3.7988    -0.2451 H       
  35 H35            2.0480    -0.6153     1.8016 H       
  36 H36            1.7495    -4.8553     0.4026 H       
  37 H37            1.9482    -3.9831    -1.1362 H       
  38 H38            3.6722    -5.7683     1.5706 H       
  39 H39            5.9676    -6.6376     1.3743 H       
  40 H40            7.3532    -6.0278    -0.5677 H       
  41 H41            6.4430    -4.5494    -2.3139 H       
  42 H42            4.1447    -3.6868    -2.1218 H       
  43 H43           -3.2641    -1.1023    -1.7503 H       
  44 H44           -5.3606     0.1612    -1.5390 H       
  45 H45           -6.0870    -1.7013     2.2583 H       
  46 H46           -3.9926    -2.9658     2.0312 H       
  47 H47           -7.6238    -0.7036     2.2972 H       
  48 H48           -9.3634     1.2427     1.0204 H       
  49 H49          -11.2871     1.8743     2.0693 H       
  50 H50          -11.9865     0.5463     3.0261 H       
  51 H51          -11.1098     1.8641     3.8404 H       
  52 H52           -0.9055     2.5695     4.2653 H       
  53 H53           -0.6990     3.4416     2.7274 H       
  54 H54           -2.3332     3.1093     3.3496 H       
@<TRIPOS>BOND
   1    1    2 1
   2    1    8 2
   3    1    9 1
   4    2    3 ar
   5    2    7 ar
   6    3    4 ar
   7    3   33 1
   8    4    5 ar
   9    4   18 1
  10    5    6 ar
  11    5   34 1
  12    6    7 ar
  13    6   10 1
  14    7   35 1
  15    9   32 1
  16   10   11 1
  17   11   12 1
  18   11   36 1
  19   11   37 1
  20   12   13 ar
  21   12   17 ar
  22   13   14 ar
  23   13   38 1
  24   14   15 ar
  25   14   39 1
  26   15   16 ar
  27   15   40 1
  28   16   17 ar
  29   16   41 1
  30   17   42 1
  31   18   19 1
  32   19   20 ar
  33   19   24 ar
  34   20   21 ar
  35   20   43 1
  36   21   22 ar
  37   21   44 1
  38   22   23 ar
  39   22   25 1
  40   23   24 ar
  41   23   45 1
  42   24   46 1
  43   25   26 2
  44   25   27 am
  45   27   28 1
  46   27   47 1
  47   28   29 am
  48   28   48 1
  49   29   30 2
  50   29   31 1
  51   31   49 1
  52   31   50 1
  53   31   51 1
  54   32   52 1
  55   32   53 1
  56   32   54 1

#	End of record

