#	Name: ASD01152467
#	Creating user name:	WinNT
#	Creation time:	15. 06. 2019 19:05

#	Modifying user name:	WinNT
#	Modification time:	15. 06. 2019 19:05

#	Program:	/corina/corina34_cracker 3.40 0067  02.08.2006

@<TRIPOS>MOLECULE
ASD01152467
  50   52    0    0    0
SMALL
NO_CHARGES


@<TRIPOS>ATOM
   1 C1             0.1112     1.1571    -0.6957 C.2     
   2 N2             0.0188    -0.1436    -0.6173 N.2     
   3 N3            -1.1206    -0.7661    -0.1079 N.am    
   4 C4            -2.2616    -0.0993     0.1331 C.2     
   5 C5            -2.3925     1.3536    -0.2590 C.3     
   6 C6            -1.0086     1.9736    -0.2033 C.2     
   7 C7            -2.9558     1.4586    -1.6777 C.3     
   8 O8            -0.8360     3.0970     0.2227 O.2     
   9 C9            -1.0735    -2.1389     0.1624 C.ar    
  10 O10           -3.1908    -0.6664     0.6673 O.2     
  11 C11           -3.1986     2.9070    -2.0158 C.ar    
  12 C12           -0.0102    -2.6693     0.8797 C.ar    
  13 C13           -2.0939    -2.9703    -0.2824 C.ar    
  14 C14           -2.0490    -4.3252    -0.0160 C.ar    
  15 C15           -0.9884    -4.8582     0.6946 C.ar    
  16 C16            0.0334    -4.0297     1.1463 C.ar    
  17 C17           -2.1643     3.6869    -2.5118 C.ar    
  18 C18           -4.4531     3.4577    -1.8374 C.ar    
  19 C19           -4.6767     4.7861    -2.1482 C.ar    
  20 C20           -3.6459     5.5670    -2.6379 C.ar    
  21 C21           -2.3912     5.0200    -2.8226 C.ar    
  22 F22           -0.9477    -6.1834     0.9543 F       
  23 O23           -0.9306     3.1462    -2.6927 O.3     
  24 C24            0.0864     4.0083    -3.2070 C.3     
  25 O25            1.2211     1.7436    -1.2161 O.3     
  26 C26            2.2636     0.8755    -1.6652 C.3     
  27 N27            1.1045    -4.5683     1.8702 N.am    
  28 C28            1.7680    -3.8044     2.7605 C.2     
  29 O29            1.4983    -2.6269     2.8693 O.2     
  30 C30            2.8451    -4.4133     3.6209 C.3     
  31 H31           -3.0531     1.8665     0.4400 H       
  32 H32           -2.2419     1.0353    -2.3843 H       
  33 H33           -3.8953     0.9092    -1.7372 H       
  34 H34            0.7820    -2.0238     1.2294 H       
  35 H35           -2.9234    -2.5568    -0.8367 H       
  36 H36           -2.8435    -4.9693    -0.3628 H       
  37 H37           -5.2598     2.8499    -1.4550 H       
  38 H38           -5.6583     5.2146    -2.0087 H       
  39 H39           -3.8231     6.6045    -2.8800 H       
  40 H40           -1.5863     5.6304    -3.2048 H       
  41 H41            1.0193     3.4528    -3.3028 H       
  42 H42           -0.2154     4.3831    -4.1851 H       
  43 H43            0.2311     4.8466    -2.5255 H       
  44 H44            3.0887     1.4706    -2.0565 H       
  45 H45            2.6165     0.2695    -0.8307 H       
  46 H46            1.8808     0.2241    -2.4508 H       
  47 H47            1.3688    -5.4911     1.7308 H       
  48 H48            3.6315    -4.8199     2.9850 H       
  49 H49            3.2649    -3.6478     4.2734 H       
  50 H50            2.4178    -5.2126     4.2264 H       
@<TRIPOS>BOND
   1    1    2 2
   2    1   25 1
   3    1    6 1
   4    2    3 1
   5    3    4 am
   6    3    9 1
   7    4    5 1
   8    4   10 2
   9    5    6 1
  10    5    7 1
  11    5   31 1
  12    6    8 2
  13    7   11 1
  14    7   32 1
  15    7   33 1
  16    9   12 ar
  17    9   13 ar
  18   11   17 ar
  19   11   18 ar
  20   12   16 ar
  21   12   34 1
  22   13   14 ar
  23   13   35 1
  24   14   15 ar
  25   14   36 1
  26   15   16 ar
  27   15   22 1
  28   16   27 1
  29   17   23 1
  30   17   21 ar
  31   18   19 ar
  32   18   37 1
  33   19   20 ar
  34   19   38 1
  35   20   21 ar
  36   20   39 1
  37   21   40 1
  38   23   24 1
  39   24   41 1
  40   24   42 1
  41   24   43 1
  42   25   26 1
  43   26   44 1
  44   26   45 1
  45   26   46 1
  46   27   28 am
  47   27   47 1
  48   28   29 2
  49   28   30 1
  50   30   48 1
  51   30   49 1
  52   30   50 1

#	End of record

