#	Name: ASD01900531
#	Creating user name:	WinNT
#	Creation time:	15. 06. 2019 19:52

#	Modifying user name:	WinNT
#	Modification time:	15. 06. 2019 19:52

#	Program:	/corina/corina34_cracker 3.40 0067  02.08.2006

@<TRIPOS>MOLECULE
ASD01900531
  30   32    0    0    0
SMALL
NO_CHARGES


@<TRIPOS>ATOM
   1 O1             4.4652    -2.6616    -2.0331 O.3     
   2 N2             3.1551    -2.8564    -1.5398 N.2     
   3 C3             2.8534    -1.8982    -0.7079 C.2     
   4 C4             4.0192    -1.0045    -0.6310 C.ar    
   5 C5             4.9901    -1.5448    -1.4870 C.ar    
   6 C6             6.2181    -0.9047    -1.6213 C.ar    
   7 C7             6.4713     0.2530    -0.9140 C.ar    
   8 C8             5.5104     0.7867    -0.0677 C.ar    
   9 C9             4.2895     0.1668     0.0776 C.ar    
  10 N10            1.6549    -1.7492    -0.0227 N.pl3   
  11 F11            7.1614    -1.4158    -2.4424 F       
  12 C12            0.6729    -2.7399    -0.1090 C.ar    
  13 C13            1.0368    -4.0627    -0.3221 C.ar    
  14 C14            0.0602    -5.0421    -0.4070 C.ar    
  15 C15           -1.2788    -4.6989    -0.2790 C.ar    
  16 C16           -1.6393    -3.3819    -0.0673 C.ar    
  17 C17           -0.6684    -2.4033     0.0242 C.ar    
  18 O18            0.4130    -6.3377    -0.6160 O.3     
  19 C19           -0.6460    -7.2942    -0.6928 C.3     
  20 F20           -1.3664    -7.2895     0.5064 F       
  21 F21           -1.4990    -6.9615    -1.7506 F       
  22 H22            7.4256     0.7475    -1.0200 H       
  23 H23            5.7210     1.6932     0.4802 H       
  24 H24            3.5440     0.5856     0.7372 H       
  25 H25            1.4992    -0.9576     0.5157 H       
  26 H26            2.0790    -4.3278    -0.4218 H       
  27 H27           -2.0398    -5.4624    -0.3452 H       
  28 H28           -2.6819    -3.1177     0.0312 H       
  29 H29           -0.9526    -1.3754     0.1944 H       
  30 H30           -0.2278    -8.2865    -0.8616 H       
@<TRIPOS>BOND
   1    1    2 1
   2    1    5 1
   3    2    3 2
   4    3    4 1
   5    3   10 1
   6    4    5 ar
   7    4    9 ar
   8    5    6 ar
   9    6    7 ar
  10    6   11 1
  11    7    8 ar
  12    7   22 1
  13    8    9 ar
  14    8   23 1
  15    9   24 1
  16   10   12 1
  17   10   25 1
  18   12   13 ar
  19   12   17 ar
  20   13   14 ar
  21   13   26 1
  22   14   15 ar
  23   14   18 1
  24   15   16 ar
  25   15   27 1
  26   16   17 ar
  27   16   28 1
  28   17   29 1
  29   18   19 1
  30   19   20 1
  31   19   21 1
  32   19   30 1

#	End of record

