#	Name: ASD05380320
#	Creating user name:	WinNT
#	Creation time:	15. 06. 2019 20:59

#	Modifying user name:	WinNT
#	Modification time:	15. 06. 2019 20:59

#	Program:	/corina/corina34_cracker 3.40 0067  02.08.2006

@<TRIPOS>MOLECULE
ASD05380320
  63   67    0    0    0
SMALL
NO_CHARGES


@<TRIPOS>ATOM
   1 N1            -0.6440     2.0087    -0.4646 N.ar    
   2 C2            -0.3552     0.7085    -0.5210 C.ar    
   3 C3             0.9335     0.3162    -0.8811 C.ar    
   4 C4             1.8704     1.3051    -1.1684 C.ar    
   5 N5             1.5084     2.5822    -1.0906 N.ar    
   6 C6             0.2748     2.9193    -0.7452 C.ar    
   7 N7             3.1681     0.9618    -1.5316 N.am    
   8 C8             3.6177     0.6374    -2.8941 C.3     
   9 C9             4.2143     0.8780    -0.6984 C.2     
  10 O10            5.3572     0.5276    -1.2984 O.3     
  11 C11            5.1196     0.3381    -2.7234 C.3     
  12 C12            5.4253    -1.0816    -3.1258 C.ar    
  13 C13            3.4104     1.8321    -3.8272 C.3     
  14 O14            4.1322     1.1005     0.4932 O.2     
  15 N15           -0.0626     4.2598    -0.6762 N.3     
  16 C16           -1.4868     4.4287    -0.3530 C.3     
  17 C17            0.2731     4.9527    -1.9286 C.3     
  18 C18           -0.0604     6.4403    -1.7877 C.3     
  19 O19           -1.4409     6.5836    -1.4429 O.3     
  20 C20           -1.8026     5.9215    -0.2279 C.3     
  21 C21           -1.3890    -0.3056    -0.2051 C.ar    
  22 C22           -2.1464    -0.2159     0.9663 C.ar    
  23 N23           -3.0584    -1.1393     1.2125 N.ar    
  24 C24           -3.2589    -2.1399     0.3665 C.ar    
  25 N25           -2.5609    -2.2592    -0.7544 N.ar    
  26 C26           -1.6353    -1.3730    -1.0740 C.ar    
  27 C27           -1.9255     0.9176     1.9346 C.3     
  28 F28           -2.4582     2.0964     1.4019 F       
  29 F29           -2.5595     0.6255     3.1470 F       
  30 F30           -0.5537     1.0830     2.1537 F       
  31 N31           -4.2226    -3.0857     0.6614 N.pl3   
  32 C32            6.0378    -1.3385    -4.3385 C.ar    
  33 C33            6.3191    -2.6391    -4.7097 C.ar    
  34 C34            5.9865    -3.6878    -3.8646 C.ar    
  35 C35            5.3720    -3.4273    -2.6483 C.ar    
  36 C36            5.0979    -2.1246    -2.2793 C.ar    
  37 O37            6.2618    -4.9681    -4.2277 O.3     
  38 O38            2.0142     2.1181    -3.9317 O.3     
  39 C39            5.8913    -5.9972    -3.3080 C.3     
  40 H40            1.1985    -0.7294    -0.9355 H       
  41 H41            3.0911    -0.2387    -3.2726 H       
  42 H42            5.7169     1.0388    -3.3068 H       
  43 H43            3.9303     2.7016    -3.4251 H       
  44 H44            3.8077     1.5954    -4.8142 H       
  45 H45           -2.0942     3.9934    -1.1465 H       
  46 H46           -1.7075     3.9296     0.5906 H       
  47 H47            1.3370     4.8362    -2.1351 H       
  48 H48           -0.3061     4.5258    -2.7473 H       
  49 H49            0.5578     6.8793    -1.0046 H       
  50 H50            0.1333     6.9478    -2.7327 H       
  51 H51           -2.8689     6.0538    -0.0448 H       
  52 H52           -1.2351     6.3454     0.6005 H       
  53 H53           -1.0705    -1.4763    -1.9887 H       
  54 H54           -4.7409    -3.0117     1.4780 H       
  55 H55           -4.3805    -3.8235     0.0519 H       
  56 H56            6.2962    -0.5218    -4.9962 H       
  57 H57            6.7972    -2.8393    -5.6572 H       
  58 H58            5.1121    -4.2420    -1.9887 H       
  59 H59            4.6196    -1.9213    -1.3326 H       
  60 H60            1.8081     2.8660    -4.5091 H       
  61 H61            6.4102    -5.8431    -2.3619 H       
  62 H62            4.8146    -5.9651    -3.1413 H       
  63 H63            6.1665    -6.9684    -3.7193 H       
@<TRIPOS>BOND
   1    1    2 ar
   2    1    6 ar
   3    2    3 ar
   4    2   21 1
   5    3    4 ar
   6    3   40 1
   7    4    5 ar
   8    4    7 1
   9    5    6 ar
  10    6   15 1
  11    7    8 1
  12    7    9 am
  13    8   13 1
  14    8   11 1
  15    8   41 1
  16    9   10 1
  17    9   14 2
  18   10   11 1
  19   11   12 1
  20   11   42 1
  21   12   32 ar
  22   12   36 ar
  23   13   38 1
  24   13   43 1
  25   13   44 1
  26   15   16 1
  27   15   17 1
  28   16   20 1
  29   16   45 1
  30   16   46 1
  31   17   18 1
  32   17   47 1
  33   17   48 1
  34   18   19 1
  35   18   49 1
  36   18   50 1
  37   19   20 1
  38   20   51 1
  39   20   52 1
  40   21   22 ar
  41   21   26 ar
  42   22   23 ar
  43   22   27 1
  44   23   24 ar
  45   24   25 ar
  46   24   31 1
  47   25   26 ar
  48   26   53 1
  49   27   28 1
  50   27   29 1
  51   27   30 1
  52   31   54 1
  53   31   55 1
  54   32   33 ar
  55   32   56 1
  56   33   34 ar
  57   33   57 1
  58   34   35 ar
  59   34   37 1
  60   35   36 ar
  61   35   58 1
  62   36   59 1
  63   37   39 1
  64   38   60 1
  65   39   61 1
  66   39   62 1
  67   39   63 1

#	End of record

