#	Name: ASD07930414
#	Creating user name:	WinNT
#	Creation time:	15. 06. 2019 21:12

#	Modifying user name:	WinNT
#	Modification time:	15. 06. 2019 21:12

#	Program:	/corina/corina34_cracker 3.40 0067  02.08.2006

@<TRIPOS>MOLECULE
ASD07930414
  47   49    0    0    0
SMALL
NO_CHARGES


@<TRIPOS>ATOM
   1 N1             0.1942     0.8905     0.9062 N.2     
   2 N2            -1.0822    -1.0330     0.5423 N.pl3   
   3 C3            -1.2789    -1.9097    -0.6169 C.3     
   4 C4            -0.2382    -3.0374    -0.5808 C.3     
   5 S5             1.4183    -2.2844    -0.5235 S.o2    
   6 N6             1.2765    -1.1798     0.7160 N.am    
   7 C7             0.1294    -0.3990     0.7273 C.2     
   8 C8             2.3115    -1.0401     1.7433 C.3     
   9 C9            -1.1104    -1.1001    -1.9042 C.3     
  10 C10           -2.6640    -2.5014    -0.5711 C.ar    
  11 C11           -2.9094    -3.7493    -1.1127 C.ar    
  12 N12           -4.1175    -4.2773    -1.0789 N.ar    
  13 C13           -5.1365    -3.6453    -0.5320 C.ar    
  14 C14           -4.9692    -2.3874     0.0330 C.ar    
  15 C15           -3.7049    -1.8034     0.0194 C.ar    
  16 O16            2.3819    -3.2202    -0.0598 O.2     
  17 O17            1.6536    -1.4946    -1.6811 O.2     
  18 N18           -6.0531    -1.7196     0.6121 N.am    
  19 C19           -6.1421    -0.3776     0.5256 C.2     
  20 O20           -5.2395     0.2599     0.0197 O.2     
  21 C21           -7.3400     0.3204     1.0471 C.ar    
  22 N22           -8.3225    -0.3812     1.5985 N.ar    
  23 C23           -9.4026     0.1996     2.0739 C.ar    
  24 C24           -9.5550     1.5756     2.0154 C.ar    
  25 C25           -8.5527     2.3468     1.4475 C.ar    
  26 C26           -7.4234     1.7085     0.9600 C.ar    
  27 C27          -10.7984     2.2273     2.5633 C.3     
  28 F28          -11.6516     1.2452     3.0778 F       
  29 F29          -10.4471     3.1199     3.5816 F       
  30 F30          -11.4509     2.9218     1.5390 F       
  31 H31            1.0546     1.3197     1.0343 H       
  32 H32           -1.8039    -0.8959     1.1758 H       
  33 H33           -0.3933    -3.6523     0.3058 H       
  34 H34           -0.3316    -3.6523    -1.4760 H       
  35 H35            3.0438    -0.2991     1.4229 H       
  36 H36            1.8539    -0.7179     2.6787 H       
  37 H37            2.8069    -1.9995     1.8927 H       
  38 H38           -0.1076    -0.6743    -1.9370 H       
  39 H39           -1.2567    -1.7522    -2.7653 H       
  40 H40           -1.8471    -0.2970    -1.9273 H       
  41 H41           -2.1005    -4.2996    -1.5702 H       
  42 H42           -6.1114    -4.1099    -0.5233 H       
  43 H43           -3.5419    -0.8267     0.4505 H       
  44 H44           -6.7408    -2.2224     1.0759 H       
  45 H45          -10.1815    -0.4042     2.5157 H       
  46 H46           -8.6481     3.4210     1.3898 H       
  47 H47           -6.6229     2.2781     0.5115 H       
@<TRIPOS>BOND
   1    1    7 2
   2    1   31 1
   3    2    3 1
   4    2    7 1
   5    2   32 1
   6    3    4 1
   7    3    9 1
   8    3   10 1
   9    4    5 1
  10    4   33 1
  11    4   34 1
  12    5    6 am
  13    5   16 2
  14    5   17 2
  15    6    7 1
  16    6    8 1
  17    8   35 1
  18    8   36 1
  19    8   37 1
  20    9   38 1
  21    9   39 1
  22    9   40 1
  23   10   11 ar
  24   10   15 ar
  25   11   12 ar
  26   11   41 1
  27   12   13 ar
  28   13   14 ar
  29   13   42 1
  30   14   15 ar
  31   14   18 1
  32   15   43 1
  33   18   19 am
  34   18   44 1
  35   19   20 2
  36   19   21 1
  37   21   22 ar
  38   21   26 ar
  39   22   23 ar
  40   23   24 ar
  41   23   45 1
  42   24   25 ar
  43   24   27 1
  44   25   26 ar
  45   25   46 1
  46   26   47 1
  47   27   28 1
  48   27   29 1
  49   27   30 1

#	End of record

