#	Name: ASD01880692
#	Creating user name:	WinNT
#	Creation time:	15. 06. 2019 19:41

#	Modifying user name:	WinNT
#	Modification time:	15. 06. 2019 19:41

#	Program:	/corina/corina34_cracker 3.40 0067  02.08.2006

@<TRIPOS>MOLECULE
ASD01880692
  51   54    0    0    0
SMALL
NO_CHARGES


@<TRIPOS>ATOM
   1 N1            -0.3158     1.5122    -0.3901 N.ar    
   2 C2            -0.5290     0.2197    -0.2378 C.ar    
   3 N3             0.4524    -0.6175     0.0379 N.ar    
   4 C4             1.6954    -0.1840     0.1716 C.ar    
   5 C5             1.9583     1.1683     0.0181 C.ar    
   6 C6             0.9017     2.0171    -0.2707 C.ar    
   7 C7             3.3599     1.7028     0.1623 C.3     
   8 O8             4.2695     0.6142     0.3347 O.3     
   9 C9             5.5824     0.9255     0.4801 C.ar    
  10 C10            6.5218    -0.0866     0.6520 C.ar    
  11 C11            7.8496     0.2296     0.7985 C.ar    
  12 C12            8.2659     1.5649     0.7763 C.ar    
  13 C13            7.3183     2.5775     0.6031 C.ar    
  14 C14            5.9881     2.2544     0.4516 C.ar    
  15 C15            9.0930    -0.6007     0.9979 C.3     
  16 N16           10.2095     0.3476     1.0835 N.am    
  17 C17            9.7278     1.5957     0.9552 C.2     
  18 O18           10.4028     2.6067     0.9825 O.2     
  19 Br19          -2.2877    -0.4510    -0.4187 Br      
  20 C20            7.7520     4.0205     0.5777 C.3     
  21 C21            1.1360     3.4952    -0.4473 C.3     
  22 C22            0.8802     4.2039     0.8578 C.ar    
  23 C23            1.9300     4.4713     1.7164 C.ar    
  24 C24            1.6953     5.1214     2.9136 C.ar    
  25 C25            0.4109     5.5043     3.2520 C.ar    
  26 C26           -0.6388     5.2377     2.3930 C.ar    
  27 C27           -0.4035     4.5915     1.1938 C.ar    
  28 C28           12.2846    -0.2106    -0.0844 C.3     
  29 C29           11.6175    -0.0077     1.2775 C.3     
  30 H30            2.4943    -0.8746     0.3977 H       
  31 H31            3.6291     2.2629    -0.7332 H       
  32 H32            3.4107     2.3597     1.0307 H       
  33 H33            6.2067    -1.1194     0.6703 H       
  34 H34            5.2564     3.0374     0.3174 H       
  35 H35            9.0167    -1.1740     1.9218 H       
  36 H36            9.2354    -1.2716     0.1507 H       
  37 H37            7.9830     4.3125    -0.4468 H       
  38 H38            6.9481     4.6483     0.9619 H       
  39 H39            8.6386     4.1444     1.1995 H       
  40 H40            2.1671     3.6652    -0.7570 H       
  41 H41            0.4593     3.8818    -1.2094 H       
  42 H42            2.9335     4.1721     1.4521 H       
  43 H43            2.5154     5.3297     3.5848 H       
  44 H44            0.2275     6.0116     4.1877 H       
  45 H45           -1.6423     5.5366     2.6575 H       
  46 H46           -1.2236     4.3832     0.5226 H       
  47 H47           11.7781    -1.0127    -0.6212 H       
  48 H48           12.2187     0.7114    -0.6622 H       
  49 H49           13.3321    -0.4749     0.0599 H       
  50 H50           12.1240     0.7944     1.8143 H       
  51 H51           11.6833    -0.9296     1.8552 H       
@<TRIPOS>BOND
   1    1    2 ar
   2    1    6 ar
   3    2    3 ar
   4    2   19 1
   5    3    4 ar
   6    4    5 ar
   7    4   30 1
   8    5    6 ar
   9    5    7 1
  10    6   21 1
  11    7    8 1
  12    7   31 1
  13    7   32 1
  14    8    9 1
  15    9   10 ar
  16    9   14 ar
  17   10   11 ar
  18   10   33 1
  19   11   12 ar
  20   11   15 1
  21   12   13 ar
  22   12   17 1
  23   13   14 ar
  24   13   20 1
  25   14   34 1
  26   15   16 1
  27   15   35 1
  28   15   36 1
  29   16   17 am
  30   16   29 1
  31   17   18 2
  32   20   37 1
  33   20   38 1
  34   20   39 1
  35   21   22 1
  36   21   40 1
  37   21   41 1
  38   22   23 ar
  39   22   27 ar
  40   23   24 ar
  41   23   42 1
  42   24   25 ar
  43   24   43 1
  44   25   26 ar
  45   25   44 1
  46   26   27 ar
  47   26   45 1
  48   27   46 1
  49   28   29 1
  50   28   47 1
  51   28   48 1
  52   28   49 1
  53   29   50 1
  54   29   51 1

#	End of record

