#	Name: ASD05490254
#	Creating user name:	WinNT
#	Creation time:	15. 06. 2019 21:01

#	Modifying user name:	WinNT
#	Modification time:	15. 06. 2019 21:01

#	Program:	/corina/corina34_cracker 3.40 0067  02.08.2006

@<TRIPOS>MOLECULE
ASD05490254
  63   67    0    0    0
SMALL
NO_CHARGES


@<TRIPOS>ATOM
   1 N1            -0.0140     1.3235    -0.0017 N.ar    
   2 C2             0.0026    -0.0005    -0.0085 C.ar    
   3 C3             1.1990    -0.7004    -0.0178 C.ar    
   4 C4             2.3953     0.0106    -0.0206 C.ar    
   5 C5             2.3404     1.4047    -0.0168 C.ar    
   6 C6             1.1047     2.0380    -0.0056 C.ar    
   7 N7             3.6186    -0.6479    -0.0229 N.3     
   8 C8             3.4706    -2.0318    -0.4926 C.3     
   9 C9             4.7908    -2.7480    -0.3696 C.ar    
  10 C10            5.1071    -3.4220     0.7949 C.ar    
  11 C11            6.3189    -4.0751     0.9029 C.ar    
  12 C12            7.2201    -4.0580    -0.1504 C.ar    
  13 C13            6.9033    -3.3895    -1.3138 C.ar    
  14 C14            5.6844    -2.7369    -1.4220 C.ar    
  15 N15            1.0388     3.4288     0.0012 N.pl3   
  16 O16           -1.1706    -0.6833    -0.0060 O.3     
  17 C17           -2.3717     0.0908     0.0042 C.3     
  18 N18            3.5364     2.1439    -0.0281 N.am    
  19 C19            4.6273     0.0692    -0.8098 C.3     
  20 C20            4.6763     1.5173    -0.3970 C.2     
  21 O21            5.7309     2.1170    -0.3961 O.2     
  22 C22           -3.5818    -0.8454     0.0056 C.3     
  23 O23           -3.6039    -1.5934     1.2230 O.3     
  24 C24           -4.7009    -2.5034     1.3263 C.3     
  25 C25            8.5352    -4.7750     0.0168 C.3     
  26 C26            9.1866    -4.9963    -1.3486 C.3     
  27 N27            9.2015    -3.7155    -2.0729 N.3     
  28 C28            7.8435    -3.3520    -2.4900 C.3     
  29 C29           10.1087    -3.7738    -3.2268 C.3     
  30 C30            9.9137    -2.5273    -4.0924 C.3     
  31 C31           10.8533    -2.3418    -5.2856 C.3     
  32 C32            9.3916    -2.7306    -5.5161 C.3     
  33 H33            1.2028    -1.7804    -0.0224 H       
  34 H34            2.7222    -2.5430     0.1130 H       
  35 H35            3.1542    -2.0297    -1.5357 H       
  36 H36            4.4084    -3.4375     1.6183 H       
  37 H37            6.5660    -4.6017     1.8129 H       
  38 H38            5.4362    -2.2102    -2.3316 H       
  39 H39            1.8549     3.9530    -0.0019 H       
  40 H40            0.1767     3.8735     0.0091 H       
  41 H41           -2.3941     0.7150     0.8975 H       
  42 H42           -2.4033     0.7240    -0.8825 H       
  43 H43            3.5435     3.0810     0.2224 H       
  44 H44            5.6040    -0.3863    -0.6458 H       
  45 H45            4.3737     0.0035    -1.8678 H       
  46 H46           -4.4961    -0.2576    -0.0762 H       
  47 H47           -3.5129    -1.5297    -0.8400 H       
  48 H48           -5.6384    -1.9499     1.2718 H       
  49 H49           -4.6552    -3.2220     0.5080 H       
  50 H50           -4.6459    -3.0322     2.2778 H       
  51 H51            9.1977    -4.1750     0.6407 H       
  52 H52            8.3636    -5.7387     0.4963 H       
  53 H53           10.2078    -5.3525    -1.2137 H       
  54 H54            8.6117    -5.7298    -1.9139 H       
  55 H55            7.4995    -4.0548    -3.2488 H       
  56 H56            7.8530    -2.3470    -2.9118 H       
  57 H57           11.1401    -3.8151    -2.8765 H       
  58 H58            9.8895    -4.6637    -3.8168 H       
  59 H59            9.5920    -1.6316    -3.5611 H       
  60 H60           11.1494    -1.3240    -5.5395 H       
  61 H61           11.6104    -3.1077    -5.4539 H       
  62 H62            9.1870    -3.7523    -5.8361 H       
  63 H63            8.7261    -1.9685    -5.9217 H       
@<TRIPOS>BOND
   1    1    2 ar
   2    1    6 ar
   3    2    3 ar
   4    2   16 1
   5    3    4 ar
   6    3   33 1
   7    4    5 ar
   8    4    7 1
   9    5    6 ar
  10    5   18 1
  11    6   15 1
  12    7    8 1
  13    7   19 1
  14    8    9 1
  15    8   34 1
  16    8   35 1
  17    9   10 ar
  18    9   14 ar
  19   10   11 ar
  20   10   36 1
  21   11   12 ar
  22   11   37 1
  23   12   13 ar
  24   12   25 1
  25   13   14 ar
  26   13   28 1
  27   14   38 1
  28   15   39 1
  29   15   40 1
  30   16   17 1
  31   17   22 1
  32   17   41 1
  33   17   42 1
  34   18   20 am
  35   18   43 1
  36   19   20 1
  37   19   44 1
  38   19   45 1
  39   20   21 2
  40   22   23 1
  41   22   46 1
  42   22   47 1
  43   23   24 1
  44   24   48 1
  45   24   49 1
  46   24   50 1
  47   25   26 1
  48   25   51 1
  49   25   52 1
  50   26   27 1
  51   26   53 1
  52   26   54 1
  53   27   28 1
  54   27   29 1
  55   28   55 1
  56   28   56 1
  57   29   30 1
  58   29   57 1
  59   29   58 1
  60   30   31 1
  61   30   32 1
  62   30   59 1
  63   31   32 1
  64   31   60 1
  65   31   61 1
  66   32   62 1
  67   32   63 1

#	End of record

