#	Name: ASD05430656
#	Creating user name:	WinNT
#	Creation time:	15. 06. 2019 21:00

#	Modifying user name:	WinNT
#	Modification time:	15. 06. 2019 21:00

#	Program:	/corina/corina34_cracker 3.40 0067  02.08.2006

@<TRIPOS>MOLECULE
ASD05430656
  24   24    0    0    0
SMALL
NO_CHARGES


@<TRIPOS>ATOM
   1 C1            -0.0167     1.3782     0.0096 C.ar    
   2 C2             0.0021    -0.0041     0.0020 C.ar    
   3 C3            -1.1849    -0.7118     0.0091 C.ar    
   4 C4            -2.4106     1.3485     0.0439 C.ar    
   5 C5            -1.2224     2.0541     0.0305 C.ar    
   6 C6             1.2784     2.1488     0.0014 C.3     
   7 C7             1.7029     2.4174    -1.4438 C.3     
   8 C8             0.6801     3.3375    -2.1132 C.3     
   9 C9             3.0775     3.0891    -1.4552 C.3     
  10 C10           -2.3932    -0.0359     0.0243 C.ar    
  11 F11           -3.5542    -0.7267     0.0312 F       
  12 H12            0.9447    -0.5311    -0.0098 H       
  13 H13           -1.1700    -1.7917     0.0024 H       
  14 H14           -3.3525     1.8767     0.0606 H       
  15 H15           -1.2357     3.1339     0.0458 H       
  16 H16            1.1405     3.0967     0.5217 H       
  17 H17            2.0506     1.5671     0.5048 H       
  18 H18            1.7546     1.4746    -1.9884 H       
  19 H19           -0.2992     2.8590    -2.1051 H       
  20 H20            0.6283     4.2803    -1.5686 H       
  21 H21            0.9825     3.5289    -3.1428 H       
  22 H22            3.8062     2.4335    -0.9783 H       
  23 H23            3.3799     3.2804    -2.4847 H       
  24 H24            3.0257     4.0318    -0.9105 H       
@<TRIPOS>BOND
   1    1    2 ar
   2    1    6 1
   3    1    5 ar
   4    2    3 ar
   5    2   12 1
   6    3   10 ar
   7    3   13 1
   8    4    5 ar
   9    4   10 ar
  10    4   14 1
  11    5   15 1
  12    6    7 1
  13    6   16 1
  14    6   17 1
  15    7    8 1
  16    7    9 1
  17    7   18 1
  18    8   19 1
  19    8   20 1
  20    8   21 1
  21    9   22 1
  22    9   23 1
  23    9   24 1
  24   10   11 1

#	End of record

