#	Name: ASD01530031
#	Creating user name:	WinNT
#	Creation time:	15. 06. 2019 19:22

#	Modifying user name:	WinNT
#	Modification time:	15. 06. 2019 19:22

#	Program:	/corina/corina34_cracker 3.40 0067  02.08.2006

@<TRIPOS>MOLECULE
ASD01530031
  25   26    0    0    0
SMALL
NO_CHARGES


@<TRIPOS>ATOM
   1 C1            -0.0168     1.3913     0.0097 C.ar    
   2 C2             0.0021    -0.0041     0.0020 C.ar    
   3 C3             1.1973    -0.6670    -0.0130 C.ar    
   4 C4             2.3938     0.0377    -0.0206 C.ar    
   5 C5             2.3962     1.4174    -0.0132 C.ar    
   6 C6             1.1914     2.1094     0.0020 C.ar    
   7 C7            -1.0873     2.3942     0.0312 C.2     
   8 C8            -0.5007     3.5989     0.0292 C.2     
   9 N9             0.8665     3.4534     0.0128 N.am    
  10 C10            1.7549     4.4669     0.0072 C.2     
  11 O11            1.3221     5.7413     0.0176 O.3     
  12 O12            2.9461     4.2302    -0.0072 O.2     
  13 C13            2.3351     6.7815     0.0108 C.3     
  14 C14            1.6575     8.1533     0.0243 C.3     
  15 Cl15           3.9001    -0.8250    -0.0390 Cl      
  16 H16           -0.9248    -0.5584     0.0082 H       
  17 H17            1.2113    -1.7469    -0.0185 H       
  18 H18            3.3313     1.9576    -0.0189 H       
  19 H19           -2.1493     2.1982     0.0455 H       
  20 H20           -1.0239     4.5437     0.0419 H       
  21 H21            2.9666     6.6795     0.8933 H       
  22 H22            2.9467     6.6872    -0.8866 H       
  23 H23            2.4180     8.9342     0.0192 H       
  24 H24            1.0260     8.2553    -0.8582 H       
  25 H25            1.0460     8.2476     0.9216 H       
@<TRIPOS>BOND
   1    1    2 ar
   2    1    6 ar
   3    1    7 1
   4    2    3 ar
   5    2   16 1
   6    3    4 ar
   7    3   17 1
   8    4    5 ar
   9    4   15 1
  10    5    6 ar
  11    5   18 1
  12    6    9 1
  13    7    8 2
  14    7   19 1
  15    8    9 1
  16    8   20 1
  17    9   10 am
  18   10   11 1
  19   10   12 2
  20   11   13 1
  21   13   14 1
  22   13   21 1
  23   13   22 1
  24   14   23 1
  25   14   24 1
  26   14   25 1

#	End of record

