#	Name: ASD00310218
#	Creating user name:	WinNT
#	Creation time:	15. 06. 2019 18:34

#	Modifying user name:	WinNT
#	Modification time:	15. 06. 2019 18:34

#	Program:	/corina/corina34_cracker 3.40 0067  02.08.2006

@<TRIPOS>MOLECULE
ASD00310218
  56   59    0    0    0
SMALL
NO_CHARGES


@<TRIPOS>ATOM
   1 N1            -0.0163     1.3500     0.0095 N.pl3   
   2 C2             0.0021    -0.0041     0.0020 C.2     
   3 C3             1.2921    -0.4483    -0.0127 C.2     
   4 C4             2.1475     0.7539    -0.0144 C.ar    
   5 C5             3.5230     0.9583    -0.0264 C.ar    
   6 C6             4.0239     2.2538    -0.0243 C.ar    
   7 C7             3.1465     3.3436    -0.0100 C.ar    
   8 C8             1.7850     3.1436     0.0019 C.ar    
   9 C9             1.2694     1.8502    -0.0001 C.ar    
  10 C10            1.7402    -1.8455    -0.0240 C.2     
  11 O11            2.9286    -2.1027    -0.0364 O.2     
  12 O12            0.8342    -2.8441    -0.0208 O.3     
  13 Cl13           3.7801     4.9599    -0.0068 Cl      
  14 C14            5.4899     2.4821    -0.0365 C.ar    
  15 C15            6.0532     3.3600    -0.9605 C.ar    
  16 C16            7.4175     3.5686    -0.9674 C.ar    
  17 C17            8.2253     2.9080    -0.0595 C.ar    
  18 C18            7.6715     2.0354     0.8599 C.ar    
  19 C19            6.3078     1.8237     0.8796 C.ar    
  20 N20           11.4823     3.0201     1.5861 N.am    
  21 C21           10.1962     3.6700     1.2943 C.3     
  22 C22            9.7144     3.1394    -0.0723 C.3     
  23 C23           10.4776     1.7958    -0.2122 C.3     
  24 C24           11.8315     2.1358     0.4594 C.3     
  25 C25           12.2224     3.2064     2.6970 C.2     
  26 O26           11.8376     3.9672     3.5628 O.2     
  27 O27           13.3880     2.5496     2.8473 O.3     
  28 C28           14.1324     2.7989     4.0689 C.3     
  29 C29           13.2791     2.4036     5.2757 C.3     
  30 C30           15.4186     1.9705     4.0604 C.3     
  31 C31           14.4837     4.2854     4.1576 C.3     
  32 H32           -0.8206     1.8922     0.0163 H       
  33 H33           -0.8729    -0.6372     0.0073 H       
  34 H34            4.1975     0.1150    -0.0370 H       
  35 H35            1.1155     3.9910     0.0128 H       
  36 H36            1.1773    -3.7482    -0.0286 H       
  37 H37            5.4234     3.8761    -1.6701 H       
  38 H38            7.8552     4.2485    -1.6833 H       
  39 H39            8.3069     1.5222     1.5665 H       
  40 H40            5.8760     1.1456     1.6007 H       
  41 H41            9.4698     3.4180     2.0669 H       
  42 H42           10.3295     4.7508     1.2463 H       
  43 H43            9.9894     3.8273    -0.8719 H       
  44 H44            9.9648     0.9975     0.3245 H       
  45 H45           10.6167     1.5328    -1.2608 H       
  46 H46           12.4833     2.6555    -0.2429 H       
  47 H47           12.3124     1.2283     0.8244 H       
  48 H48           13.0288     1.3446     5.2125 H       
  49 H49           13.8378     2.5907     6.1927 H       
  50 H50           12.3627     2.9937     5.2818 H       
  51 H51           16.0265     2.2521     3.2006 H       
  52 H52           15.9774     2.1576     4.9773 H       
  53 H53           15.1684     0.9115     3.9971 H       
  54 H54           13.5673     4.8756     4.1637 H       
  55 H55           15.0424     4.4725     5.0746 H       
  56 H56           15.0916     4.5670     3.2979 H       
@<TRIPOS>BOND
   1    1    2 1
   2    1    9 1
   3    1   32 1
   4    2    3 2
   5    2   33 1
   6    3    4 1
   7    3   10 1
   8    4    5 ar
   9    4    9 ar
  10    5    6 ar
  11    5   34 1
  12    6    7 ar
  13    6   14 1
  14    7    8 ar
  15    7   13 1
  16    8    9 ar
  17    8   35 1
  18   10   11 2
  19   10   12 1
  20   12   36 1
  21   14   15 ar
  22   14   19 ar
  23   15   16 ar
  24   15   37 1
  25   16   17 ar
  26   16   38 1
  27   17   18 ar
  28   17   22 1
  29   18   19 ar
  30   18   39 1
  31   19   40 1
  32   20   21 1
  33   20   24 1
  34   20   25 am
  35   21   22 1
  36   21   41 1
  37   21   42 1
  38   22   23 1
  39   22   43 1
  40   23   24 1
  41   23   44 1
  42   23   45 1
  43   24   46 1
  44   24   47 1
  45   25   26 2
  46   25   27 1
  47   27   28 1
  48   28   29 1
  49   28   31 1
  50   28   30 1
  51   29   48 1
  52   29   49 1
  53   29   50 1
  54   30   51 1
  55   30   52 1
  56   30   53 1
  57   31   54 1
  58   31   55 1
  59   31   56 1

#	End of record

