#	Name: ASD01890439
#	Creating user name:	WinNT
#	Creation time:	15. 06. 2019 19:51

#	Modifying user name:	WinNT
#	Modification time:	15. 06. 2019 19:51

#	Program:	/corina/corina34_cracker 3.40 0067  02.08.2006

@<TRIPOS>MOLECULE
ASD01890439
  67   69    0    0    0
SMALL
NO_CHARGES


@<TRIPOS>ATOM
   1 C1             0.0437     1.6083     0.2258 C.2     
   2 C2             0.0612     0.1083     0.0823 C.3     
   3 C3             1.4858    -0.3683    -0.0376 C.2     
   4 O4             0.9030     2.1638     0.8684 O.2     
   5 O5            -0.9234     2.3278    -0.3649 O.3     
   6 O6             1.9357    -1.1388     0.7771 O.2     
   7 O7             2.2550     0.0633    -1.0495 O.3     
   8 C8            -0.5881    -0.5293     1.3123 C.3     
   9 C9            -1.9851     0.0607     1.5151 C.3     
  10 C10           -2.5663    -0.4566     2.8057 C.2     
  11 C11           -0.6966    -2.0185     1.1079 C.ar    
  12 C12           -0.0648    -2.8838     1.9813 C.ar    
  13 C13           -0.1643    -4.2498     1.7938 C.ar    
  14 C14           -0.8959    -4.7504     0.7332 C.ar    
  15 C15           -1.5284    -3.8850    -0.1398 C.ar    
  16 C16           -1.4325    -2.5191     0.0502 C.ar    
  17 O17           -1.9262    -1.2220     3.4953 O.2     
  18 C18           -4.4401    -0.5136     4.4192 C.ar    
  19 C19           -3.9087    -0.0338     3.2286 C.ar    
  20 C20           -4.6481     0.8559     2.4240 C.ar    
  21 C21           -5.8884     1.2599     2.7947 C.ar    
  22 C22           -6.4539     0.7904     3.9958 C.ar    
  23 C23           -7.7353     1.1971     4.3968 C.ar    
  24 C24           -8.2617     0.7212     5.5770 C.ar    
  25 C25           -7.5327    -0.1625     6.3803 C.ar    
  26 C26           -6.2892    -0.5724     6.0162 C.ar    
  27 C27           -5.7206    -0.1065     4.8157 C.ar    
  28 O28           -9.5020     1.1145     5.9657 O.3     
  29 C29           -9.9930     0.5865     7.1995 C.3     
  30 C30           -0.8775     3.7678    -0.1840 C.3     
  31 O31            0.1767     4.3262    -1.0117 O.3     
  32 C32           -0.0632     4.4099    -2.3297 C.2     
  33 O33           -1.1191     4.0292    -2.7770 O.2     
  34 C34            0.9844     4.9788    -3.2516 C.3     
  35 C35            3.6169    -0.4373    -1.1022 C.3     
  36 O36            3.6093    -1.8128    -1.5673 O.3     
  37 C37            3.3908    -2.0122    -2.8766 C.2     
  38 O38            3.2118    -1.0686    -3.6098 O.2     
  39 C39            3.3687    -3.4129    -3.4321 C.3     
  40 H40           -0.4940    -0.1778    -0.8110 H       
  41 H41            0.0231    -0.3269     2.1918 H       
  42 H42           -1.9177     1.1478     1.5570 H       
  43 H43           -2.6272    -0.2318     0.6844 H       
  44 H44            0.5067    -2.4927     2.8100 H       
  45 H45            0.3298    -4.9259     2.4759 H       
  46 H46           -0.9731    -5.8176     0.5863 H       
  47 H47           -2.0997    -4.2761    -0.9687 H       
  48 H48           -1.9297    -1.8431    -0.6296 H       
  49 H49           -3.8726    -1.1986     5.0317 H       
  50 H50           -4.2217     1.2207     1.5012 H       
  51 H51           -6.4430     1.9428     2.1682 H       
  52 H52           -8.3053     1.8795     3.7837 H       
  53 H53           -7.9639    -0.5235     7.3023 H       
  54 H54           -5.7382    -1.2543     6.6469 H       
  55 H55          -10.9914     0.9797     7.3913 H       
  56 H56          -10.0364    -0.5009     7.1377 H       
  57 H57           -9.3257     0.8779     8.0106 H       
  58 H58           -1.8349     4.2010    -0.4736 H       
  59 H59           -0.6772     3.9963     0.8628 H       
  60 H60            1.8615     5.2659    -2.6716 H       
  61 H61            1.2664     4.2272    -3.9889 H       
  62 H62            0.5830     5.8548    -3.7611 H       
  63 H63            4.2028     0.1748    -1.7879 H       
  64 H64            4.0592    -0.3928    -0.1070 H       
  65 H65            3.5479    -4.1258    -2.6273 H       
  66 H66            2.3957    -3.6099    -3.8822 H       
  67 H67            4.1466    -3.5159    -4.1887 H       
@<TRIPOS>BOND
   1    1    2 1
   2    1    4 2
   3    1    5 1
   4    2    3 1
   5    2    8 1
   6    2   40 1
   7    3    6 2
   8    3    7 1
   9    5   30 1
  10    7   35 1
  11    8    9 1
  12    8   11 1
  13    8   41 1
  14    9   10 1
  15    9   42 1
  16    9   43 1
  17   10   17 2
  18   10   19 1
  19   11   12 ar
  20   11   16 ar
  21   12   13 ar
  22   12   44 1
  23   13   14 ar
  24   13   45 1
  25   14   15 ar
  26   14   46 1
  27   15   16 ar
  28   15   47 1
  29   16   48 1
  30   18   19 ar
  31   18   27 ar
  32   18   49 1
  33   19   20 ar
  34   20   21 ar
  35   20   50 1
  36   21   22 ar
  37   21   51 1
  38   22   23 ar
  39   22   27 ar
  40   23   24 ar
  41   23   52 1
  42   24   25 ar
  43   24   28 1
  44   25   26 ar
  45   25   53 1
  46   26   27 ar
  47   26   54 1
  48   28   29 1
  49   29   55 1
  50   29   56 1
  51   29   57 1
  52   30   31 1
  53   30   58 1
  54   30   59 1
  55   31   32 1
  56   32   33 2
  57   32   34 1
  58   34   60 1
  59   34   61 1
  60   34   62 1
  61   35   36 1
  62   35   63 1
  63   35   64 1
  64   36   37 1
  65   37   38 2
  66   37   39 1
  67   39   65 1
  68   39   66 1
  69   39   67 1

#	End of record

