#	Name: ASD03330569
#	Creating user name:	WinNT
#	Creation time:	15. 06. 2019 20:37

#	Modifying user name:	WinNT
#	Modification time:	15. 06. 2019 20:37

#	Program:	/corina/corina34_cracker 3.40 0067  02.08.2006

@<TRIPOS>MOLECULE
ASD03330569
  64   66    0    0    0
SMALL
NO_CHARGES


@<TRIPOS>ATOM
   1 C1            -0.0619     2.0060     1.7849 C.2     
   2 N2            -0.1512     0.7141     2.2011 N.pl3   
   3 C3             1.2142     2.1999     1.3519 C.2     
   4 N4             1.8790     1.0313     1.4906 N.2     
   5 C5             1.0655     0.1323     1.9943 C.2     
   6 C6             1.4101    -1.2749     2.2881 C.ar    
   7 C7             1.7708     3.4584     0.8255 C.2     
   8 O8             1.0688     4.4486     0.7482 O.2     
   9 C9             3.6114     4.7638    -0.0940 C.3     
  10 N10            3.0580     3.5124     0.4294 N.am    
  11 C11            3.3002     4.8736    -1.5880 C.3     
  12 C12            1.7894     4.7645    -1.8036 C.3     
  13 C13            3.7943     6.2226    -2.1142 C.3     
  14 C14            4.0056     3.7434    -2.3403 C.3     
  15 C15            5.1044     4.7771     0.1103 C.2     
  16 N16            5.7920     5.9291    -0.0181 N.am    
  17 O17            5.6873     3.7510     0.3904 O.2     
  18 C18            7.2516     5.9290     0.1074 C.3     
  19 C19           -1.3441     0.0875     2.7772 C.3     
  20 C20           -2.5599     0.4305     1.9107 C.3     
  21 C21           -3.1681     1.7501     2.3745 C.3     
  22 N22           -2.1335     2.6656     2.8597 N.3     
  23 C23           -1.1833     3.0123     1.7923 C.3     
  24 C24           -2.7314     3.8731     3.4449 C.3     
  25 C25            2.0960    -2.0411     1.3413 C.ar    
  26 C26            2.4154    -3.3553     1.6210 C.ar    
  27 C27            2.0560    -3.9139     2.8396 C.ar    
  28 C28            1.3742    -3.1545     3.7825 C.ar    
  29 C29            1.0565    -1.8408     3.5143 C.ar    
  30 F30            2.4453    -1.4973     0.1549 F       
  31 O31            2.3713    -5.2069     3.1112 O.3     
  32 C32            1.9716    -5.7186     4.3841 C.3     
  33 H33            3.1651     5.6071     0.4330 H       
  34 H34            3.6179     2.7228     0.4910 H       
  35 H35            1.2868     5.5696    -1.2676 H       
  36 H36            1.5676     4.8426    -2.8679 H       
  37 H37            1.4373     3.8034    -1.4287 H       
  38 H38            4.8388     6.3610    -1.8349 H       
  39 H39            3.7025     6.2448    -3.2001 H       
  40 H40            3.1936     7.0231    -1.6823 H       
  41 H41            3.6536     2.7823    -1.9655 H       
  42 H42            3.7839     3.8215    -3.4046 H       
  43 H43            5.0819     3.8211    -2.1867 H       
  44 H44            5.3204     6.7584    -0.1936 H       
  45 H45            7.6817     5.2792    -0.6548 H       
  46 H46            7.6278     6.9433    -0.0254 H       
  47 H47            7.5313     5.5642     1.0957 H       
  48 H48           -1.2101    -0.9939     2.8052 H       
  49 H49           -1.5002     0.4626     3.7887 H       
  50 H50           -2.2492     0.5207     0.8697 H       
  51 H51           -3.3031    -0.3619     1.9989 H       
  52 H52           -3.6939     2.2145     1.5402 H       
  53 H53           -3.8775     1.5539     3.1785 H       
  54 H54           -0.7784     4.0079     1.9740 H       
  55 H55           -1.6944     2.9956     0.8298 H       
  56 H56           -3.3707     3.5929     4.2821 H       
  57 H57           -1.9410     4.5358     3.7972 H       
  58 H58           -3.3263     4.3867     2.6896 H       
  59 H59            2.9450    -3.9490     0.8906 H       
  60 H60            1.0966    -3.5935     4.7294 H       
  61 H61            0.5265    -1.2522     4.2484 H       
  62 H62            2.2842    -6.7591     4.4719 H       
  63 H63            2.4384    -5.1310     5.1747 H       
  64 H64            0.8874    -5.6559     4.4767 H       
@<TRIPOS>BOND
   1    1    2 1
   2    1    3 2
   3    1   23 1
   4    2   19 1
   5    2    5 1
   6    3    4 1
   7    3    7 1
   8    4    5 2
   9    5    6 1
  10    6   25 ar
  11    6   29 ar
  12    7    8 2
  13    7   10 am
  14    9   10 1
  15    9   11 1
  16    9   15 1
  17    9   33 1
  18   10   34 1
  19   11   12 1
  20   11   13 1
  21   11   14 1
  22   12   35 1
  23   12   36 1
  24   12   37 1
  25   13   38 1
  26   13   39 1
  27   13   40 1
  28   14   41 1
  29   14   42 1
  30   14   43 1
  31   15   16 am
  32   15   17 2
  33   16   18 1
  34   16   44 1
  35   18   45 1
  36   18   46 1
  37   18   47 1
  38   19   20 1
  39   19   48 1
  40   19   49 1
  41   20   21 1
  42   20   50 1
  43   20   51 1
  44   21   22 1
  45   21   52 1
  46   21   53 1
  47   22   23 1
  48   22   24 1
  49   23   54 1
  50   23   55 1
  51   24   56 1
  52   24   57 1
  53   24   58 1
  54   25   26 ar
  55   25   30 1
  56   26   27 ar
  57   26   59 1
  58   27   28 ar
  59   27   31 1
  60   28   29 ar
  61   28   60 1
  62   29   61 1
  63   31   32 1
  64   32   62 1
  65   32   63 1
  66   32   64 1

#	End of record

