#	Name: ASD01918114
#	Creating user name:	WinNT
#	Creation time:	15. 06. 2019 20:10

#	Modifying user name:	WinNT
#	Modification time:	15. 06. 2019 20:10

#	Program:	/corina/corina34_cracker 3.40 0067  02.08.2006

@<TRIPOS>MOLECULE
ASD01918114
  37   39    0    0    0
SMALL
NO_CHARGES


@<TRIPOS>ATOM
   1 N1            -0.0170     1.3953     0.0110 N.am    
   2 C2             0.0019    -0.0042     0.0064 C.2     
   3 C3             2.4259    -0.1104    -0.5594 C.3     
   4 C4             2.2030     1.3390    -1.0059 C.3     
   5 C5             1.3004     2.0617     0.0002 C.3     
   6 C6            -1.0007    -0.8781     0.2390 C.2     
   7 C7            -0.4734    -2.1702     0.1186 C.2     
   8 N8             0.8007    -2.0713    -0.1762 N.2     
   9 N9             1.1281    -0.7183    -0.2547 N.pl3   
  10 C10           -1.2396    -3.4554     0.2979 C.3     
  11 O11           -2.6014    -3.1581     0.6130 O.3     
  12 C12           -1.1698     2.0934     0.0191 C.2     
  13 O13           -2.2309     1.5129    -0.0717 O.2     
  14 C14           -3.4344    -4.2141     0.8074 C.ar    
  15 C15           -4.7692    -3.9976     1.1163 C.ar    
  16 C16           -5.6163    -5.0738     1.3141 C.ar    
  17 C17           -5.1319    -6.3662     1.2042 C.ar    
  18 C18           -3.7997    -6.5837     0.8963 C.ar    
  19 C19           -2.9519    -5.5093     0.6915 C.ar    
  20 C20           -1.1405     3.5952     0.1408 C.3     
  21 F21           -6.9164    -4.8633     1.6150 F       
  22 F22           -3.3285    -7.8454     0.7903 F       
  23 H23            2.9113    -0.6684    -1.3601 H       
  24 H24            3.0542    -0.1254     0.3312 H       
  25 H25            3.1632     1.8516    -1.0643 H       
  26 H26            1.7297     1.3467    -1.9878 H       
  27 H27            1.1813     3.1036    -0.2972 H       
  28 H28            1.7450     2.0101     0.9941 H       
  29 H29           -2.0240    -0.6264     0.4755 H       
  30 H30           -1.1983    -4.0348    -0.6244 H       
  31 H31           -0.7965    -4.0324     1.1096 H       
  32 H32           -5.1471    -2.9896     1.2028 H       
  33 H33           -5.7938    -7.2054     1.3591 H       
  34 H34           -1.9128    -5.6793     0.4510 H       
  35 H35           -0.5106     4.0112    -0.6455 H       
  36 H36           -2.1525     3.9876     0.0414 H       
  37 H37           -0.7371     3.8729     1.1146 H       
@<TRIPOS>BOND
   1    1    2 1
   2    1    5 1
   3    1   12 am
   4    2    6 2
   5    2    9 1
   6    3    4 1
   7    3    9 1
   8    3   23 1
   9    3   24 1
  10    4    5 1
  11    4   25 1
  12    4   26 1
  13    5   27 1
  14    5   28 1
  15    6    7 1
  16    6   29 1
  17    7    8 2
  18    7   10 1
  19    8    9 1
  20   10   11 1
  21   10   30 1
  22   10   31 1
  23   11   14 1
  24   12   13 2
  25   12   20 1
  26   14   15 ar
  27   14   19 ar
  28   15   16 ar
  29   15   32 1
  30   16   17 ar
  31   16   21 1
  32   17   18 ar
  33   17   33 1
  34   18   19 ar
  35   18   22 1
  36   19   34 1
  37   20   35 1
  38   20   36 1
  39   20   37 1

#	End of record

