#	Name: ASD03092090
#	Creating user name:	WinNT
#	Creation time:	15. 06. 2019 20:31

#	Modifying user name:	WinNT
#	Modification time:	15. 06. 2019 20:31

#	Program:	/corina/corina34_cracker 3.40 0067  02.08.2006

@<TRIPOS>MOLECULE
ASD03092090
  53   55    0    0    0
SMALL
NO_CHARGES


@<TRIPOS>ATOM
   1 N1             0.1111     0.7488     2.0025 N.pl3   
   2 C2            -0.1234    -0.4507     1.3985 C.2     
   3 C3            -1.3091    -0.3466     0.7284 C.2     
   4 C4            -1.8037     0.9477     0.9322 C.2     
   5 N5            -0.9590     1.5995     1.6976 N.2     
   6 N6            -2.9997     1.4583     0.4129 N.pl3   
   7 C7            -3.3300     2.8012     0.6104 C.ar    
   8 C8            -4.6614     3.1795     0.7323 C.ar    
   9 C9            -4.9877     4.5076     0.9277 C.ar    
  10 C10           -3.9919     5.4627     1.0028 C.ar    
  11 C11           -2.3279     3.7590     0.6910 C.ar    
  12 C12            0.7465    -1.6457     1.4579 C.ar    
  13 C13            1.2728     1.0860     2.8289 C.3     
  14 C14            1.1093    -2.2107     2.6856 C.ar    
  15 C15            1.9219    -3.3253     2.6947 C.ar    
  16 N16            2.3552    -3.8571     1.5677 N.ar    
  17 C17            2.0369    -3.3559     0.3891 C.ar    
  18 C18            1.2248    -2.2461     0.2874 C.ar    
  19 C19            2.5639    -4.0085    -0.8629 C.3     
  20 C20           -2.6600     5.0907     0.8818 C.ar    
  21 C21            0.8670    -1.6813    -1.0631 C.3     
  22 O22            1.7527     2.3831     2.4693 O.3     
  23 C23            0.8674     1.0831     4.3042 C.3     
  24 C24            2.1053     1.3120     5.1737 C.3     
  25 O25           -1.6820     6.0314     0.9554 O.3     
  26 C26           -0.3312     5.5653     0.9440 C.3     
  27 C27           -6.4325     4.9157     1.0586 C.3     
  28 F28           -6.8107     4.8668     2.4047 F       
  29 F29           -6.5947     6.2186     0.5757 F       
  30 F30           -7.2333     4.0404     0.3172 F       
  31 H31           -1.7808    -1.1236     0.1451 H       
  32 H32           -3.5988     0.8795    -0.0840 H       
  33 H33           -5.4416     2.4350     0.6740 H       
  34 H34           -4.2503     6.5002     1.1556 H       
  35 H35           -1.2920     3.4672     0.6010 H       
  36 H36            2.0600     0.3496     2.6669 H       
  37 H37            0.7586    -1.7804     3.6120 H       
  38 H38            2.2077    -3.7684     3.6372 H       
  39 H39            1.8613    -4.7714    -1.1983 H       
  40 H40            2.6826    -3.2560    -1.6425 H       
  41 H41            3.5289    -4.4701    -0.6535 H       
  42 H42            0.0087    -2.2190    -1.4661 H       
  43 H43            0.6186    -0.6249    -0.9610 H       
  44 H44            1.7148    -1.7914    -1.7392 H       
  45 H45            1.1033     3.0897     2.5882 H       
  46 H46            0.1448     1.8791     4.4840 H       
  47 H47            0.4193     0.1219     4.5559 H       
  48 H48            2.8279     0.5160     4.9939 H       
  49 H49            2.5534     2.2732     4.9220 H       
  50 H50            1.8165     1.3100     6.2248 H       
  51 H51            0.3462     6.4117     1.0564 H       
  52 H52           -0.1807     4.8674     1.7677 H       
  53 H53           -0.1289     5.0610    -0.0010 H       
@<TRIPOS>BOND
   1    1    2 1
   2    1   13 1
   3    1    5 1
   4    2    3 2
   5    2   12 1
   6    3    4 1
   7    3   31 1
   8    4    5 2
   9    4    6 1
  10    6    7 1
  11    6   32 1
  12    7    8 ar
  13    7   11 ar
  14    8    9 ar
  15    8   33 1
  16    9   10 ar
  17    9   27 1
  18   10   20 ar
  19   10   34 1
  20   11   20 ar
  21   11   35 1
  22   12   14 ar
  23   12   18 ar
  24   13   22 1
  25   13   23 1
  26   13   36 1
  27   14   15 ar
  28   14   37 1
  29   15   16 ar
  30   15   38 1
  31   16   17 ar
  32   17   18 ar
  33   17   19 1
  34   18   21 1
  35   19   39 1
  36   19   40 1
  37   19   41 1
  38   20   25 1
  39   21   42 1
  40   21   43 1
  41   21   44 1
  42   22   45 1
  43   23   24 1
  44   23   46 1
  45   23   47 1
  46   24   48 1
  47   24   49 1
  48   24   50 1
  49   25   26 1
  50   26   51 1
  51   26   52 1
  52   26   53 1
  53   27   28 1
  54   27   29 1
  55   27   30 1

#	End of record

