#	Name: ASD03080107
#	Creating user name:	WinNT
#	Creation time:	15. 06. 2019 20:26

#	Modifying user name:	WinNT
#	Modification time:	15. 06. 2019 20:26

#	Program:	/corina/corina34_cracker 3.40 0067  02.08.2006

@<TRIPOS>MOLECULE
ASD03080107
  28   30    0    0    0
SMALL
NO_CHARGES


@<TRIPOS>ATOM
   1 N1             0.0175    -1.1399    -0.0042 N.1     
   2 C2             0.0021    -0.0041     0.0020 C.1     
   3 C3            -0.0173     1.4278     0.0099 C.ar    
   4 C4             1.1814     2.1445     0.0023 C.ar    
   5 C5             1.1626     3.5248     0.0099 C.ar    
   6 C6            -0.0396     4.2048     0.0251 C.ar    
   7 C7            -1.2432     3.5009     0.0328 C.ar    
   8 C8            -1.2334     2.1106     0.0194 C.ar    
   9 C9            -2.5335     4.2349     0.0497 C.2     
  10 N10           -3.7485     3.6777     0.1537 N.2     
  11 N11           -4.6523     4.5943     0.1371 N.2     
  12 N12           -4.0159     5.8383     0.0153 N.pl3   
  13 C13           -2.6791     5.5859    -0.0321 C.2     
  14 C14           -4.6350     7.0955    -0.0406 C.ar    
  15 C15           -6.0212     7.2036     0.0261 C.ar    
  16 C16           -6.5864     8.4673    -0.0327 C.ar    
  17 C17           -5.7624     9.5703    -0.1545 C.ar    
  18 N18           -4.4520     9.4337    -0.2152 N.ar    
  19 C19           -3.8738     8.2507    -0.1574 C.ar    
  20 H20            2.1244     1.6181    -0.0092 H       
  21 H21            2.0917     4.0753     0.0044 H       
  22 H22           -0.0473     5.2848     0.0314 H       
  23 H23           -2.1634     1.5617     0.0253 H       
  24 H24           -1.8880     6.3153    -0.1241 H       
  25 H25           -6.6409     6.3242     0.1209 H       
  26 H26           -7.6584     8.5890     0.0159 H       
  27 H27           -6.1975    10.5577    -0.2012 H       
  28 H28           -2.7975     8.1786    -0.2102 H       
@<TRIPOS>BOND
   1    1    2 3
   2    2    3 1
   3    3    4 ar
   4    3    8 ar
   5    4    5 ar
   6    4   20 1
   7    5    6 ar
   8    5   21 1
   9    6    7 ar
  10    6   22 1
  11    7    8 ar
  12    7    9 1
  13    8   23 1
  14    9   10 1
  15    9   13 2
  16   10   11 2
  17   11   12 1
  18   12   13 1
  19   12   14 1
  20   13   24 1
  21   14   15 ar
  22   14   19 ar
  23   15   16 ar
  24   15   25 1
  25   16   17 ar
  26   16   26 1
  27   17   18 ar
  28   17   27 1
  29   18   19 ar
  30   19   28 1

#	End of record

