#	Name: ASD05720224
#	Creating user name:	WinNT
#	Creation time:	15. 06. 2019 21:02

#	Modifying user name:	WinNT
#	Modification time:	15. 06. 2019 21:02

#	Program:	/corina/corina34_cracker 3.40 0067  02.08.2006

@<TRIPOS>MOLECULE
ASD05720224
  51   56    0    0    0
SMALL
NO_CHARGES


@<TRIPOS>ATOM
   1 C1            -0.0162     1.3408     0.0094 C.2     
   2 N2             0.0021    -0.0041     0.0020 N.am    
   3 C3             1.4078    -0.4385     0.2067 C.3     
   4 C4             2.1786     0.8046    -0.2130 C.3     
   5 N5             1.2126     1.8930     0.0006 N.am    
   6 C6             3.4948     1.0535     0.4641 C.3     
   7 C7             3.4590     0.7534     1.9583 C.3     
   8 C8             3.0083    -0.6996     2.1445 C.3     
   9 C9             1.5690    -0.8247     1.6646 C.3     
  10 O10           -1.0413     1.9942     0.0179 O.2     
  11 C11           -1.9847    -2.9631    -0.3124 C.2     
  12 N12           -0.9384    -2.1472    -0.1523 N.2     
  13 C13           -1.0960    -0.8369    -0.1662 C.2     
  14 C14           -2.3789    -0.2825    -0.3514 C.2     
  15 C15           -3.4399    -1.1054    -0.5137 C.2     
  16 N16           -3.2449    -2.4585    -0.4945 N.pl3   
  17 N17           -4.1253    -3.5375    -0.6325 N.2     
  18 C18           -3.4535    -4.6587    -0.5417 C.2     
  19 C19           -2.0994    -4.3597    -0.3450 C.2     
  20 C20           -0.9969    -5.3352    -0.1975 C.ar    
  21 C21           -1.1152    -6.3907     0.7096 C.ar    
  22 C22           -0.0901    -7.2984     0.8466 C.ar    
  23 C23            1.0691    -7.1641     0.0783 C.ar    
  24 C24            1.1872    -6.1082    -0.8289 C.ar    
  25 C25            0.1596    -5.2038    -0.9695 C.ar    
  26 C26            2.1701    -8.1383     0.2257 C.2     
  27 N27            2.1813    -9.1707     1.0405 N.2     
  28 C28            3.3387    -9.8284     0.9039 C.2     
  29 C29            4.0820    -9.1936    -0.0247 C.2     
  30 N30            3.3473    -8.1244    -0.4647 N.pl3   
  31 H31            1.6485    -1.2753    -0.4490 H       
  32 H32            2.3708     0.7348    -1.2837 H       
  33 H33            1.4214     2.8334     0.1138 H       
  34 H34            4.2540     0.4257    -0.0022 H       
  35 H35            3.7707     2.0985     0.3223 H       
  36 H36            4.4533     0.8874     2.3842 H       
  37 H37            2.7540     1.4230     2.4510 H       
  38 H38            3.6483    -1.3595     1.5587 H       
  39 H39            3.0674    -0.9690     3.1991 H       
  40 H40            0.9369    -0.1776     2.2728 H       
  41 H41            1.2423    -1.8565     1.7943 H       
  42 H42           -2.5132     0.7890    -0.3633 H       
  43 H43           -4.4300    -0.6982    -0.6564 H       
  44 H44           -3.8743    -5.6509    -0.6112 H       
  45 H45           -2.0111    -6.4942     1.3037 H       
  46 H46           -0.1814    -8.1143     1.5483 H       
  47 H47            2.0833    -6.0040    -1.4227 H       
  48 H48            0.2490    -4.3902    -1.6740 H       
  49 H49            3.6283   -10.7166     1.4457 H       
  50 H50            5.0683    -9.4771    -0.3613 H       
  51 H51            3.6140    -7.4789    -1.1378 H       
@<TRIPOS>BOND
   1    1    2 am
   2    1    5 am
   3    1   10 2
   4    2    3 1
   5    2   13 1
   6    3    4 1
   7    3    9 1
   8    3   31 1
   9    4    5 1
  10    4    6 1
  11    4   32 1
  12    5   33 1
  13    6    7 1
  14    6   34 1
  15    6   35 1
  16    7    8 1
  17    7   36 1
  18    7   37 1
  19    8    9 1
  20    8   38 1
  21    8   39 1
  22    9   40 1
  23    9   41 1
  24   11   12 1
  25   11   16 1
  26   11   19 2
  27   12   13 2
  28   13   14 1
  29   14   15 2
  30   14   42 1
  31   15   16 1
  32   15   43 1
  33   16   17 1
  34   17   18 2
  35   18   19 1
  36   18   44 1
  37   19   20 1
  38   20   21 ar
  39   20   25 ar
  40   21   22 ar
  41   21   45 1
  42   22   23 ar
  43   22   46 1
  44   23   24 ar
  45   23   26 1
  46   24   25 ar
  47   24   47 1
  48   25   48 1
  49   26   27 2
  50   26   30 1
  51   27   28 1
  52   28   29 2
  53   28   49 1
  54   29   30 1
  55   29   50 1
  56   30   51 1

#	End of record

