#	Name: ASD01230718
#	Creating user name:	WinNT
#	Creation time:	15. 06. 2019 19:14

#	Modifying user name:	WinNT
#	Modification time:	15. 06. 2019 19:14

#	Program:	/corina/corina34_cracker 3.40 0067  02.08.2006

@<TRIPOS>MOLECULE
ASD01230718
  39   41    0    0    0
SMALL
NO_CHARGES


@<TRIPOS>ATOM
   1 C1            -0.0154     1.3092     0.0046 C.2     
   2 N2            -0.0659     0.1045    -0.5179 N.2     
   3 C3            -1.2003    -0.5931    -0.5169 C.2     
   4 C4            -2.3393    -0.0969     0.0010 C.2     
   5 N5            -2.3873     1.1607     0.5564 N.pl3   
   6 C6            -1.2369     1.8958     0.6067 C.2     
   7 C7            -3.6830     1.6220     1.0531 C.3     
   8 C8            -3.5005     2.4904     2.3021 C.3     
   9 S9            -2.3940     3.8626     1.8469 S.o2    
  10 N10           -1.1162     3.0812     1.1426 N.am    
  11 C11            1.2518     2.0716    -0.0021 C.ar    
  12 C12            2.4732     1.4002     0.0810 C.ar    
  13 O13           -2.9617     4.6432     0.8040 O.2     
  14 O14           -1.8411     4.4702     3.0064 O.2     
  15 C15            1.2301     3.4645    -0.0976 C.ar    
  16 C16            2.4131     4.1714    -0.1041 C.ar    
  17 C17            3.6259     3.5001    -0.0158 C.ar    
  18 C18            3.6519     2.1143     0.0739 C.ar    
  19 O19            4.7898     4.2004    -0.0230 O.3     
  20 C20            5.9937     3.4601     0.1882 C.3     
  21 C21            6.4742     2.8774    -1.1423 C.3     
  22 C22            7.0695     4.3874     0.7571 C.3     
  23 H23           -1.2066    -1.5850    -0.9440 H       
  24 H24           -3.2354    -0.6993    -0.0204 H       
  25 H25           -4.1781     2.2066     0.2777 H       
  26 H26           -4.3008     0.7592     1.3020 H       
  27 H27           -4.4646     2.8827     2.6255 H       
  28 H28           -3.0514     1.9010     3.1015 H       
  29 H29            2.4942     0.3227     0.1512 H       
  30 H30            0.2875     3.9871    -0.1666 H       
  31 H31            2.3971     5.2487    -0.1782 H       
  32 H32            4.5969     1.5959     0.1424 H       
  33 H33            5.8032     2.6499     0.8921 H       
  34 H34            5.7078     2.2167    -1.5476 H       
  35 H35            6.6647     3.6876    -1.8462 H       
  36 H36            7.3925     2.3127    -0.9812 H       
  37 H37            6.7272     4.8025     1.7050 H       
  38 H38            7.9878     3.8227     0.9182 H       
  39 H39            7.2600     5.1976     0.0533 H       
@<TRIPOS>BOND
   1    1    2 2
   2    1   11 1
   3    1    6 1
   4    2    3 1
   5    3    4 2
   6    3   23 1
   7    4    5 1
   8    4   24 1
   9    5    6 1
  10    5    7 1
  11    6   10 2
  12    7    8 1
  13    7   25 1
  14    7   26 1
  15    8    9 1
  16    8   27 1
  17    8   28 1
  18    9   10 am
  19    9   13 2
  20    9   14 2
  21   11   12 ar
  22   11   15 ar
  23   12   18 ar
  24   12   29 1
  25   15   16 ar
  26   15   30 1
  27   16   17 ar
  28   16   31 1
  29   17   18 ar
  30   17   19 1
  31   18   32 1
  32   19   20 1
  33   20   21 1
  34   20   22 1
  35   20   33 1
  36   21   34 1
  37   21   35 1
  38   21   36 1
  39   22   37 1
  40   22   38 1
  41   22   39 1

#	End of record

