#	Name: ASD00700001
#	Creating user name:	WinNT
#	Creation time:	15. 06. 2019 18:37

#	Modifying user name:	WinNT
#	Modification time:	15. 06. 2019 18:37

#	Program:	/corina/corina34_cracker 3.40 0067  02.08.2006

@<TRIPOS>MOLECULE
ASD00700001
  54   55    0    0    0
SMALL
NO_CHARGES


@<TRIPOS>ATOM
   1 C1            -0.0167     1.3795     0.0096 C.ar    
   2 C2             0.0021    -0.0041     0.0020 C.ar    
   3 C3             1.2061    -0.6867    -0.0127 C.ar    
   4 C4             2.3967     0.0087    -0.0204 C.ar    
   5 C5             2.3857     1.4065    -0.0133 C.ar    
   6 C6             1.1663     2.0887     0.0021 C.ar    
   7 N7             3.5621     2.1026    -0.0203 N.2     
   8 N8             3.5483     3.3924    -0.0137 N.2     
   9 C9             4.7246     4.0885    -0.0208 C.ar    
  10 C10            5.9441     3.4063    -0.0352 C.ar    
  11 C11            7.1271     4.1155    -0.0423 C.ar    
  12 C12            7.1083     5.4991    -0.0351 C.ar    
  13 C13            5.9043     6.1817    -0.0208 C.ar    
  14 C14            4.7136     5.4863    -0.0194 C.ar    
  15 C15            1.2158    -2.1936    -0.0199 C.3     
  16 N16            1.2056    -2.6768    -1.4072 N.4     
  17 C17            5.8946     7.6886    -0.0130 C.3     
  18 N18            5.8790     8.1853    -1.3954 N.4     
  19 C19            4.6766     7.6915    -2.0797 C.3     
  20 C20            5.8696     9.6543    -1.3879 C.3     
  21 C21            7.0753     7.7069    -2.1012 C.3     
  22 C22            2.3952    -2.1761    -2.1087 C.3     
  23 C23            1.2150    -4.1457    -1.4142 C.3     
  24 C24           -0.0035    -2.1916    -2.0858 C.3     
  25 H25           -0.9600     1.9054     0.0170 H       
  26 H26           -0.9274    -0.5541     0.0080 H       
  27 H27            3.3355    -0.5252    -0.0316 H       
  28 H28            1.1501     3.1686     0.0074 H       
  29 H29            5.9602     2.3264    -0.0405 H       
  30 H30            8.0703     3.5896    -0.0531 H       
  31 H31            8.0377     6.0491    -0.0403 H       
  32 H32            3.7748     6.0202    -0.0086 H       
  33 H33            2.1129    -2.5536     0.4837 H       
  34 H34            0.3331    -2.5651     0.5006 H       
  35 H35            5.0070     8.0436     0.5106 H       
  36 H36            6.7868     8.0551     0.4947 H       
  37 H37            3.7890     8.0464    -1.5560 H       
  38 H38            4.6650     8.0600    -3.1054 H       
  39 H39            4.6835     6.6015    -2.0853 H       
  40 H40            6.7619    10.0207    -0.8802 H       
  41 H41            5.8581    10.0228    -2.4136 H       
  42 H42            4.9820    10.0093    -0.8643 H       
  43 H43            7.0823     6.6169    -2.1068 H       
  44 H44            7.0637     8.0754    -3.1269 H       
  45 H45            7.9675     8.0734    -1.5935 H       
  46 H46            3.2924    -2.5361    -1.6052 H       
  47 H47            2.3877    -2.5346    -3.1381 H       
  48 H48            2.3882    -1.0862    -2.1035 H       
  49 H49            0.3323    -4.5172    -0.8936 H       
  50 H50            1.2075    -4.5042    -2.4435 H       
  51 H51            2.1122    -4.5057    -0.9106 H       
  52 H52           -0.0105    -1.1016    -2.0806 H       
  53 H53           -0.0110    -2.5501    -3.1152 H       
  54 H54           -0.8862    -2.5631    -1.5653 H       
@<TRIPOS>BOND
   1    1    2 ar
   2    1    6 ar
   3    1   25 1
   4    2    3 ar
   5    2   26 1
   6    3    4 ar
   7    3   15 1
   8    4    5 ar
   9    4   27 1
  10    5    6 ar
  11    5    7 1
  12    6   28 1
  13    7    8 2
  14    8    9 1
  15    9   10 ar
  16    9   14 ar
  17   10   11 ar
  18   10   29 1
  19   11   12 ar
  20   11   30 1
  21   12   13 ar
  22   12   31 1
  23   13   14 ar
  24   13   17 1
  25   14   32 1
  26   15   16 1
  27   15   33 1
  28   15   34 1
  29   16   22 1
  30   16   23 1
  31   16   24 1
  32   17   18 1
  33   17   35 1
  34   17   36 1
  35   18   19 1
  36   18   20 1
  37   18   21 1
  38   19   37 1
  39   19   38 1
  40   19   39 1
  41   20   40 1
  42   20   41 1
  43   20   42 1
  44   21   43 1
  45   21   44 1
  46   21   45 1
  47   22   46 1
  48   22   47 1
  49   22   48 1
  50   23   49 1
  51   23   50 1
  52   23   51 1
  53   24   52 1
  54   24   53 1
  55   24   54 1

#	End of record

