#	Name: ASD00192032
#	Creating user name:	WinNT
#	Creation time:	15. 06. 2019 18:33

#	Modifying user name:	WinNT
#	Modification time:	15. 06. 2019 18:33

#	Program:	/corina/corina34_cracker 3.40 0067  02.08.2006

@<TRIPOS>MOLECULE
ASD00192032
  21   22    0    0    0
SMALL
NO_CHARGES


@<TRIPOS>ATOM
   1 N1             0.0104     1.2959     0.2771 N.ar    
   2 C2             0.1058     0.0051     0.4956 C.ar    
   3 C3             1.2734    -0.6985     0.2330 C.ar    
   4 C4             2.3771    -0.0318    -0.2749 C.ar    
   5 C5             2.2613     1.3600    -0.5066 C.ar    
   6 C6             3.3314     2.1054    -1.0194 C.ar    
   7 C7             3.1808     3.4435    -1.2298 C.ar    
   8 C8             1.9765     4.0797    -0.9411 C.ar    
   9 C9             0.9175     3.3847    -0.4415 C.ar    
  10 C10            1.0356     2.0034    -0.2119 C.ar    
  11 N11            3.5574    -0.7064    -0.5470 N.pl3   
  12 N12            1.3394    -2.1539     0.4947 N.pl3   
  13 O13            0.3675    -2.8560     0.2798 O.2     
  14 O14            2.3654    -2.6494     0.9250 O.2     
  15 H15           -0.7482    -0.5245     0.8913 H       
  16 H16            4.2703     1.6223    -1.2462 H       
  17 H17            4.0059     4.0174    -1.6250 H       
  18 H18            1.8808     5.1412    -1.1158 H       
  19 H19           -0.0097     3.8932    -0.2221 H       
  20 H20            3.5877    -1.6741    -0.4877 H       
  21 H21            4.3529    -0.2107    -0.7968 H       
@<TRIPOS>BOND
   1    1    2 ar
   2    1   10 ar
   3    2    3 ar
   4    2   15 1
   5    3    4 ar
   6    3   12 1
   7    4    5 ar
   8    4   11 1
   9    5    6 ar
  10    5   10 ar
  11    6    7 ar
  12    6   16 1
  13    7    8 ar
  14    7   17 1
  15    8    9 ar
  16    8   18 1
  17    9   10 ar
  18    9   19 1
  19   11   20 1
  20   11   21 1
  21   12   13 2
  22   12   14 2

#	End of record

