#	Name: ASD01900571
#	Creating user name:	WinNT
#	Creation time:	15. 06. 2019 19:52

#	Modifying user name:	WinNT
#	Modification time:	15. 06. 2019 19:52

#	Program:	/corina/corina34_cracker 3.40 0067  02.08.2006

@<TRIPOS>MOLECULE
ASD01900571
  41   44    0    0    0
SMALL
NO_CHARGES


@<TRIPOS>ATOM
   1 C1             0.9966     3.1517     0.7506 C.ar    
   2 C2             2.0693     3.5882     1.5277 C.ar    
   3 N3             1.1296     2.0698    -0.0117 N.ar    
   4 N4             3.2117     2.9259     1.5032 N.ar    
   5 C5             3.3383     1.8517     0.7441 C.ar    
   6 C6             2.2733     1.4149    -0.0300 C.ar    
   7 C7            -0.2888     3.8870     0.7789 C.2     
   8 O8            -0.4099     4.8723     1.4799 O.2     
   9 N9            -1.3241     3.4633     0.0271 N.am    
  10 C10           -2.5671     4.0984     0.1268 C.ar    
  11 C11           -2.6315     5.4699     0.3376 C.ar    
  12 C12           -3.8585     6.0963     0.4354 C.ar    
  13 C13           -5.0281     5.3541     0.3229 C.ar    
  14 C14           -4.9631     3.9839     0.1122 C.ar    
  15 C15           -3.7364     3.3583     0.0092 C.ar    
  16 O16           -9.4429     9.0143     0.5433 O.3     
  17 C17           -8.4344     8.5083    -0.3384 C.3     
  18 C18           -8.2574     7.0112    -0.0619 C.3     
  19 N19           -8.0579     6.8731     1.3992 N.am    
  20 C20           -8.9445     7.5082     2.3788 C.3     
  21 C21           -9.1224     8.9702     1.9340 C.3     
  22 C22           -6.9433     6.1635     1.5740 C.2     
  23 N23           -6.2750     5.9902     0.4227 N.am    
  24 C24           -6.9507     6.5045    -0.6276 C.2     
  25 S25           -6.4258     5.5475     3.0852 S.2     
  26 O26           -6.5854     6.5500    -1.7829 O.2     
  27 Cl27          -3.9398     7.8102     0.6995 Cl      
  28 H28            1.9661     4.4663     2.1479 H       
  29 H29            4.2738     1.3123     0.7263 H       
  30 H30            2.3813     0.5362    -0.6486 H       
  31 H31           -1.2076     2.7183    -0.5830 H       
  32 H32           -1.7224     6.0462     0.4254 H       
  33 H33           -5.8721     3.4073     0.0248 H       
  34 H34           -3.6863     2.2926    -0.1588 H       
  35 H35           -8.7433     8.6565    -1.3731 H       
  36 H36           -7.4939     9.0287    -0.1574 H       
  37 H37           -9.1146     6.4348    -0.4098 H       
  38 H38           -9.9098     7.0022     2.3909 H       
  39 H39           -8.4914     7.4726     3.3696 H       
  40 H40           -8.1969     9.5183     2.1105 H       
  41 H41           -9.9290     9.4280     2.5068 H       
@<TRIPOS>BOND
   1    1    2 ar
   2    1    3 ar
   3    1    7 1
   4    2    4 ar
   5    2   28 1
   6    3    6 ar
   7    4    5 ar
   8    5    6 ar
   9    5   29 1
  10    6   30 1
  11    7    8 2
  12    7    9 am
  13    9   10 1
  14    9   31 1
  15   10   11 ar
  16   10   15 ar
  17   11   12 ar
  18   11   32 1
  19   12   13 ar
  20   12   27 1
  21   13   14 ar
  22   13   23 1
  23   14   15 ar
  24   14   33 1
  25   15   34 1
  26   16   17 1
  27   16   21 1
  28   17   18 1
  29   17   35 1
  30   17   36 1
  31   18   19 1
  32   18   24 1
  33   18   37 1
  34   19   20 1
  35   19   22 am
  36   20   21 1
  37   20   38 1
  38   20   39 1
  39   21   40 1
  40   21   41 1
  41   22   23 am
  42   22   25 2
  43   23   24 am
  44   24   26 2

#	End of record

