#	Name: ASD02038580
#	Creating user name:	WinNT
#	Creation time:	15. 06. 2019 20:17

#	Modifying user name:	WinNT
#	Modification time:	15. 06. 2019 20:17

#	Program:	/corina/corina34_cracker 3.40 0067  02.08.2006

@<TRIPOS>MOLECULE
ASD02038580
  53   56    0    0    0
SMALL
NO_CHARGES


@<TRIPOS>ATOM
   1 N1             0.0681     1.4281     0.1801 N.3     
   2 C2             0.1837    -0.0364     0.1789 C.3     
   3 C3             1.3321     2.0315     0.1561 C.3     
   4 C4            -1.1475    -0.6535     0.6124 C.3     
   5 C5            -1.0591    -2.1777     0.5140 C.3     
   6 O6            -2.3360    -2.7488     0.8064 O.3     
   7 C7            -2.4306    -4.1045     0.7625 C.ar    
   8 C8            -1.3146    -4.8661     0.4440 C.ar    
   9 C9            -1.4055    -6.2437     0.3981 C.ar    
  10 C10           -2.6132    -6.8656     0.6710 C.ar    
  11 C11           -3.7365    -6.1033     0.9918 C.ar    
  12 C12           -3.6395    -4.7220     1.0414 C.ar    
  13 O13           -1.4291    -0.2787     1.9623 O.3     
  14 C14            1.2342     3.5599     0.3608 C.3     
  15 C15            0.7503     4.1948    -0.9179 C.3     
  16 N16           -0.7209     4.3561    -0.9614 N.3     
  17 C17           -1.4638     3.1918    -0.4366 C.3     
  18 C18           -0.8518     1.8872    -0.8802 C.3     
  19 C19           -1.1149     5.5327    -0.3187 C.ar    
  20 C20           -0.5239     6.7428    -0.6588 C.ar    
  21 C21           -0.9153     7.9041    -0.0220 C.ar    
  22 C22           -1.8952     7.8629     0.9542 C.ar    
  23 C23           -2.4854     6.6587     1.2954 C.ar    
  24 C24           -2.1023     5.4952     0.6574 C.ar    
  25 Cl25          -2.3847     9.3246     1.7526 Cl      
  26 N26           -3.0158    -8.2025     0.7060 N.am    
  27 C27           -4.3229    -8.2227     1.0342 C.2     
  28 O28           -4.7603    -6.9656     1.2068 O.3     
  29 O29           -5.0010    -9.2249     1.1549 O.2     
  30 H30            0.4339    -0.3803    -0.8247 H       
  31 H31            0.9678    -0.3395     0.8728 H       
  32 H32            1.9457     1.6045     0.9494 H       
  33 H33            1.8046     1.8304    -0.8053 H       
  34 H34           -1.9441    -0.2930    -0.0385 H       
  35 H35           -0.7573    -2.4599    -0.4946 H       
  36 H36           -0.3240    -2.5460     1.2297 H       
  37 H37           -0.3736    -4.3806     0.2314 H       
  38 H38           -0.5366    -6.8351     0.1495 H       
  39 H39           -4.5062    -4.1274     1.2896 H       
  40 H40           -0.7603    -0.5674     2.5983 H       
  41 H41            0.5305     3.7761     1.1646 H       
  42 H42            2.2163     3.9574     0.6167 H       
  43 H43            1.2142     5.1758    -1.0202 H       
  44 H44            1.0603     3.5731    -1.7578 H       
  45 H45           -1.4627     3.2319     0.6527 H       
  46 H46           -2.4936     3.2391    -0.7907 H       
  47 H47           -0.2991     2.0364    -1.8078 H       
  48 H48           -1.6361     1.1459    -1.0335 H       
  49 H49            0.2412     6.7754    -1.4204 H       
  50 H50           -0.4558     8.8452    -0.2858 H       
  51 H51           -3.2495     6.6293     2.0581 H       
  52 H52           -2.5636     4.5557     0.9239 H       
  53 H53           -2.4572    -8.9750     0.5266 H       
@<TRIPOS>BOND
   1    1    2 1
   2    1    3 1
   3    1   18 1
   4    2    4 1
   5    2   30 1
   6    2   31 1
   7    3   14 1
   8    3   32 1
   9    3   33 1
  10    4    5 1
  11    4   13 1
  12    4   34 1
  13    5    6 1
  14    5   35 1
  15    5   36 1
  16    6    7 1
  17    7    8 ar
  18    7   12 ar
  19    8    9 ar
  20    8   37 1
  21    9   10 ar
  22    9   38 1
  23   10   11 ar
  24   10   26 1
  25   11   12 ar
  26   11   28 1
  27   12   39 1
  28   13   40 1
  29   14   15 1
  30   14   41 1
  31   14   42 1
  32   15   16 1
  33   15   43 1
  34   15   44 1
  35   16   17 1
  36   16   19 1
  37   17   18 1
  38   17   45 1
  39   17   46 1
  40   18   47 1
  41   18   48 1
  42   19   20 ar
  43   19   24 ar
  44   20   21 ar
  45   20   49 1
  46   21   22 ar
  47   21   50 1
  48   22   23 ar
  49   22   25 1
  50   23   24 ar
  51   23   51 1
  52   24   52 1
  53   26   27 am
  54   26   53 1
  55   27   28 1
  56   27   29 2

#	End of record

