#	Name: ASD01900873
#	Creating user name:	WinNT
#	Creation time:	15. 06. 2019 19:52

#	Modifying user name:	WinNT
#	Modification time:	15. 06. 2019 19:52

#	Program:	/corina/corina34_cracker 3.40 0067  02.08.2006

@<TRIPOS>MOLECULE
ASD01900873
  63   68    0    0    0
SMALL
NO_CHARGES


@<TRIPOS>ATOM
   1 C1             2.2512     0.3713     0.3257 C.ar    
   2 C2             2.6755    -0.9312     0.1674 C.ar    
   3 C3             4.0001    -1.2071    -0.1388 C.ar    
   4 C4             4.9165    -0.1815    -0.2825 C.ar    
   5 C5             4.5074     1.1308    -0.1204 C.ar    
   6 C6             3.1621     1.4146     0.1756 C.ar    
   7 N7             5.3958     2.1942    -0.2357 N.pl3   
   8 C8             4.8862     3.4974    -0.6772 C.3     
   9 N9             3.6212     3.8008    -0.0069 N.am    
  10 C10            2.7571     2.8225     0.3287 C.2     
  11 C11            3.3031     5.1316     0.2915 C.ar    
  12 C12            3.8951     5.7603     1.3789 C.ar    
  13 C13            3.5813     7.0726     1.6723 C.ar    
  14 C14            2.6747     7.7629     0.8810 C.ar    
  15 C15            2.0825     7.1354    -0.2052 C.ar    
  16 C16            2.3997     5.8249    -0.5032 C.ar    
  17 O17            2.3662     9.0551     1.1705 O.3     
  18 O18            1.6519     3.0998     0.7541 O.2     
  19 C19            1.4495     9.7150     0.2951 C.3     
  20 C20            5.9136     4.5822    -0.3405 C.3     
  21 C21            4.6669     3.4681    -2.1924 C.3     
  22 C22            4.2007     4.8484    -2.6613 C.3     
  23 N23            5.2140     5.8529    -2.3142 N.3     
  24 C24            5.4104     5.9306    -0.8611 C.3     
  25 C25            4.8640     7.1672    -2.8692 C.3     
  26 C26            5.8711     8.1903    -2.4109 C.ar    
  27 C27            5.5649     9.0837    -1.4238 C.ar    
  28 C28            6.5115    10.0206    -1.0161 C.ar    
  29 N29            7.7049    10.0756    -1.5562 N.ar    
  30 C30            8.0681     9.2308    -2.5262 C.ar    
  31 C31            7.1552     8.2482    -2.9838 C.ar    
  32 Br32           4.5573    -3.0004    -0.3610 Br      
  33 F33            0.2268     9.0352     0.3018 F       
  34 F34            1.2542    11.0303     0.7299 F       
  35 F35            1.9701     9.7255    -1.0034 F       
  36 C36            9.3493     9.2943    -3.1019 C.ar    
  37 C37            9.6905     8.4207    -4.0878 C.ar    
  38 C38            8.7890     7.4592    -4.5405 C.ar    
  39 C39            7.5436     7.3597    -3.9996 C.ar    
  40 H40            1.2182     0.5815     0.5603 H       
  41 H41            1.9717    -1.7422     0.2829 H       
  42 H42            5.9465    -0.4034    -0.5196 H       
  43 H43            6.3360     2.0765    -0.0283 H       
  44 H44            4.6006     5.2229     1.9953 H       
  45 H45            4.0414     7.5616     2.5182 H       
  46 H46            1.3766     7.6733    -0.8206 H       
  47 H47            1.9422     5.3380    -1.3517 H       
  48 H48            6.0462     4.6354     0.7401 H       
  49 H49            6.8656     4.3414    -0.8136 H       
  50 H50            5.6017     3.2110    -2.6906 H       
  51 H51            3.9074     2.7252    -2.4361 H       
  52 H52            4.0573     4.8356    -3.7417 H       
  53 H53            3.2589     5.0988    -2.1730 H       
  54 H54            4.4640     6.1757    -0.3792 H       
  55 H55            6.1443     6.7041    -0.6346 H       
  56 H56            4.8690     7.1149    -3.9579 H       
  57 H57            3.8710     7.4548    -2.5237 H       
  58 H58            4.5897     9.0637    -0.9602 H       
  59 H59            6.2555    10.7207    -0.2346 H       
  60 H60           10.0597    10.0338    -2.7631 H       
  61 H61           10.6758     8.4736    -4.5268 H       
  62 H62            9.0853     6.7785    -5.3249 H       
  63 H63            6.8538     6.6102    -4.3587 H       
@<TRIPOS>BOND
   1    1    2 ar
   2    1    6 ar
   3    1   40 1
   4    2    3 ar
   5    2   41 1
   6    3    4 ar
   7    3   32 1
   8    4    5 ar
   9    4   42 1
  10    5    7 1
  11    5    6 ar
  12    6   10 1
  13    7    8 1
  14    7   43 1
  15    8    9 1
  16    8   21 1
  17    8   20 1
  18    9   10 am
  19    9   11 1
  20   10   18 2
  21   11   12 ar
  22   11   16 ar
  23   12   13 ar
  24   12   44 1
  25   13   14 ar
  26   13   45 1
  27   14   15 ar
  28   14   17 1
  29   15   16 ar
  30   15   46 1
  31   16   47 1
  32   17   19 1
  33   19   33 1
  34   19   34 1
  35   19   35 1
  36   20   24 1
  37   20   48 1
  38   20   49 1
  39   21   22 1
  40   21   50 1
  41   21   51 1
  42   22   23 1
  43   22   52 1
  44   22   53 1
  45   23   24 1
  46   23   25 1
  47   24   54 1
  48   24   55 1
  49   25   26 1
  50   25   56 1
  51   25   57 1
  52   26   27 ar
  53   26   31 ar
  54   27   28 ar
  55   27   58 1
  56   28   29 ar
  57   28   59 1
  58   29   30 ar
  59   30   36 ar
  60   30   31 ar
  61   31   39 ar
  62   36   37 ar
  63   36   60 1
  64   37   38 ar
  65   37   61 1
  66   38   39 ar
  67   38   62 1
  68   39   63 1

#	End of record

