#	Name: ASD00842286
#	Creating user name:	WinNT
#	Creation time:	15. 06. 2019 18:44

#	Modifying user name:	WinNT
#	Modification time:	15. 06. 2019 18:44

#	Program:	/corina/corina34_cracker 3.40 0067  02.08.2006

@<TRIPOS>MOLECULE
ASD00842286
  85   90    0    0    0
SMALL
NO_CHARGES


@<TRIPOS>ATOM
   1 F1             6.0981    -1.6528    -1.9705 F       
   2 C2             1.0068     1.5590    -0.3814 C.ar    
   3 C3             1.3136     0.2289    -0.6283 C.ar    
   4 C4             1.2445    -0.6991     0.4009 C.ar    
   5 C5             0.8705    -0.2967     1.6682 C.ar    
   6 C6             0.5647     1.0298     1.9116 C.ar    
   7 C7             0.6333     1.9564     0.8880 C.ar    
   8 C8             1.5766    -2.1450     0.1360 C.3     
   9 C9             1.3079    -2.9849     1.3666 C.2     
  10 C10            0.7730    -2.6685    -1.0561 C.3     
  11 C11           -0.6961    -2.4381    -0.8116 C.2     
  12 N12           -1.6067    -2.9089    -1.6866 N.am    
  13 O13           -1.0589    -1.8291     0.1724 O.2     
  14 C14           -3.0331    -2.5965    -1.5233 C.3     
  15 C15           -3.8275    -3.9063    -1.5199 C.3     
  16 C16           -3.4990    -4.7007    -2.7861 C.3     
  17 C17           -2.0070    -5.0408    -2.8043 C.3     
  18 C18           -1.1913    -3.7391    -2.8254 C.3     
  19 N19           -4.2841    -5.9422    -2.8023 N.3     
  20 C20           -4.0844    -6.6752    -4.0603 C.3     
  21 C21           -4.8542    -7.9969    -4.0052 C.3     
  22 N22           -6.2801    -7.7213    -3.7804 N.3     
  23 C23           -6.4798    -6.9883    -2.5225 C.3     
  24 C24           -5.7100    -5.6666    -2.5775 C.3     
  25 H25           -6.6783    -7.2183    -4.5592 H       
  26 O26            0.2367    -3.1378     1.9145 O.2     
  27 N27            2.4789    -3.5293     1.7376 N.am    
  28 C28            3.0591    -2.3119    -0.1068 C.ar    
  29 C29            3.5267    -3.1545     0.8939 C.ar    
  30 C30            3.9127    -1.8092    -1.0630 C.ar    
  31 C31            5.2571    -2.1434    -1.0339 C.ar    
  32 C32            5.7360    -2.9836    -0.0401 C.ar    
  33 C33            4.8790    -3.4877     0.9193 C.ar    
  34 F34            7.0464    -3.3107    -0.0098 F       
  35 C35            2.4059    -6.1787     2.4791 C.ar    
  36 C36            1.1625    -6.5653     2.0009 C.ar    
  37 C37            3.4472    -7.0864     2.5058 C.ar    
  38 C38            3.2508    -8.3788     2.0561 C.ar    
  39 C39            2.0122    -8.7667     1.5790 C.ar    
  40 C40            0.9679    -7.8632     1.5506 C.ar    
  41 H41            1.8613    -9.7770     1.2282 H       
  42 O42            0.1365    -5.6745     1.9740 O.3     
  43 C43           -1.1156    -6.1421     1.4687 C.3     
  44 S44            2.6591    -4.5294     3.0451 S.o2    
  45 O45            4.0238    -4.4429     3.4315 O.2     
  46 O46            1.5821    -4.2374     3.9250 O.2     
  47 O47            1.6808    -0.1646    -1.8762 O.3     
  48 C48            2.1636     0.2251    -4.2119 C.3     
  49 C49            1.6215     0.8196    -2.9105 C.3     
  50 H50            1.0642     2.2841    -1.1798 H       
  51 H51            0.8166    -1.0187     2.4695 H       
  52 H52            0.2719     1.3423     2.9030 H       
  53 H53            0.3940     2.9918     1.0807 H       
  54 H54            1.0781    -2.1409    -1.9597 H       
  55 H55            0.9580    -3.7357    -1.1785 H       
  56 H56           -3.1868    -2.0735    -0.5794 H       
  57 H57           -3.3667    -1.9689    -2.3497 H       
  58 H58           -3.5576    -4.4932    -0.6419 H       
  59 H59           -4.8944    -3.6847    -1.4960 H       
  60 H60           -3.7461    -4.1035    -3.6638 H       
  61 H61           -1.7543    -5.6170    -1.9143 H       
  62 H62           -1.7782    -5.6265    -3.6946 H       
  63 H63           -1.3759    -3.2073    -3.7588 H       
  64 H64           -0.1299    -3.9716    -2.7386 H       
  65 H65           -4.4511    -6.0751    -4.8930 H       
  66 H66           -3.0224    -6.8784    -4.1980 H       
  67 H67           -4.7310    -8.5290    -4.9485 H       
  68 H68           -4.4689    -8.6084    -3.1893 H       
  69 H69           -7.5418    -6.7851    -2.3847 H       
  70 H70           -6.1130    -7.5883    -1.6897 H       
  71 H71           -5.8332    -5.1345    -1.6342 H       
  72 H72           -6.0953    -5.0551    -3.3934 H       
  73 H73            3.5348    -1.1555    -1.8352 H       
  74 H74            5.2585    -4.1413     1.6908 H       
  75 H75            4.4155    -6.7859     2.8780 H       
  76 H76            4.0662    -9.0867     2.0772 H       
  77 H77            0.0005    -8.1668     1.1785 H       
  78 H78           -0.9901    -6.4754     0.4385 H       
  79 H79           -1.4661    -6.9741     2.0795 H       
  80 H80           -1.8459    -5.3336     1.5025 H       
  81 H81            3.1668    -0.1660    -4.0425 H       
  82 H82            1.5100    -0.5822    -4.5425 H       
  83 H83            2.2000     0.9998    -4.9778 H       
  84 H84            0.5873     1.1314    -3.0565 H       
  85 H85            2.2243     1.6822    -2.6263 H       
@<TRIPOS>BOND
   1    1   31 1
   2    2    3 ar
   3    2    7 ar
   4    2   50 1
   5    3    4 ar
   6    3   47 1
   7    4    5 ar
   8    4    8 1
   9    5    6 ar
  10    5   51 1
  11    6    7 ar
  12    6   52 1
  13    7   53 1
  14    8    9 1
  15    8   10 1
  16    8   28 1
  17    9   26 2
  18    9   27 am
  19   10   11 1
  20   10   54 1
  21   10   55 1
  22   11   12 am
  23   11   13 2
  24   12   14 1
  25   12   18 1
  26   14   15 1
  27   14   56 1
  28   14   57 1
  29   15   16 1
  30   15   58 1
  31   15   59 1
  32   16   17 1
  33   16   19 1
  34   16   60 1
  35   17   18 1
  36   17   61 1
  37   17   62 1
  38   18   63 1
  39   18   64 1
  40   19   20 1
  41   19   24 1
  42   20   21 1
  43   20   65 1
  44   20   66 1
  45   21   22 1
  46   21   67 1
  47   21   68 1
  48   22   23 1
  49   22   25 1
  50   23   24 1
  51   23   69 1
  52   23   70 1
  53   24   71 1
  54   24   72 1
  55   27   44 am
  56   27   29 1
  57   28   29 ar
  58   28   30 ar
  59   29   33 ar
  60   30   31 ar
  61   30   73 1
  62   31   32 ar
  63   32   33 ar
  64   32   34 1
  65   33   74 1
  66   35   36 ar
  67   35   37 ar
  68   35   44 1
  69   36   42 1
  70   36   40 ar
  71   37   38 ar
  72   37   75 1
  73   38   39 ar
  74   38   76 1
  75   39   40 ar
  76   39   41 1
  77   40   77 1
  78   42   43 1
  79   43   78 1
  80   43   79 1
  81   43   80 1
  82   44   45 2
  83   44   46 2
  84   47   49 1
  85   48   49 1
  86   48   81 1
  87   48   82 1
  88   48   83 1
  89   49   84 1
  90   49   85 1

#	End of record

