#	Name: ASD01202009
#	Creating user name:	WinNT
#	Creation time:	15. 06. 2019 19:09

#	Modifying user name:	WinNT
#	Modification time:	15. 06. 2019 19:09

#	Program:	/corina/corina34_cracker 3.40 0067  02.08.2006

@<TRIPOS>MOLECULE
ASD01202009
  32   34    0    0    0
SMALL
NO_CHARGES


@<TRIPOS>ATOM
   1 C1            -0.0179     1.4673     0.0101 C.2     
   2 C2             0.0021    -0.0041     0.0020 C.2     
   3 O3             1.0636    -0.5979    -0.0113 O.2     
   4 N4            -1.1558    -0.6938     0.0094 N.am    
   5 H5            -2.0023    -0.2203     0.0200 H       
   6 C6             1.1066     2.2328     0.0035 C.2     
   7 S7             0.7109     3.8906     0.0162 S.3     
   8 C8            -1.0120     3.5563     0.0308 C.2     
   9 C9            -1.2335     2.2473     0.0197 C.2     
  10 C10            2.5119     1.6887    -0.0124 C.3     
  11 C11           -2.0902     4.6089     0.0468 C.3     
  12 C12           -1.1370    -2.0827     0.0017 C.2     
  13 S13           -2.5232    -3.0793     0.0096 S.3     
  14 N14           -0.0701    -2.8066    -0.0179 N.2     
  15 C15           -1.5023    -4.5198    -0.0163 C.2     
  16 C16           -0.2222    -4.1350    -0.0279 C.2     
  17 C17            0.6841    -5.3631    -0.0480 C.3     
  18 C18           -0.2258    -6.5257    -0.4931 C.3     
  19 C19           -1.6129    -6.0332    -0.0301 C.3     
  20 H20           -2.2212     1.8104     0.0256 H       
  21 H21            2.8411     1.5628    -1.0438 H       
  22 H22            3.1769     2.3849     0.4988 H       
  23 H23            2.5342     0.7250     0.4964 H       
  24 H24           -1.6324     5.5981     0.0473 H       
  25 H25           -2.7179     4.4996    -0.8376 H       
  26 H26           -2.7004     4.4905     0.9423 H       
  27 H27            1.4957    -5.2229    -0.7619 H       
  28 H28            1.0837    -5.5550     0.9478 H       
  29 H29           -0.1975    -6.6511    -1.5755 H       
  30 H30            0.0483    -7.4515     0.0127 H       
  31 H31           -1.8339    -6.4067     0.9698 H       
  32 H32           -2.3826    -6.3509    -0.7335 H       
@<TRIPOS>BOND
   1    1    2 1
   2    1    6 2
   3    1    9 1
   4    2    3 2
   5    2    4 am
   6    4    5 1
   7    4   12 1
   8    6    7 1
   9    6   10 1
  10    7    8 1
  11    8    9 2
  12    8   11 1
  13    9   20 1
  14   10   21 1
  15   10   22 1
  16   10   23 1
  17   11   24 1
  18   11   25 1
  19   11   26 1
  20   12   13 1
  21   12   14 2
  22   13   15 1
  23   14   16 1
  24   15   16 2
  25   15   19 1
  26   16   17 1
  27   17   18 1
  28   17   27 1
  29   17   28 1
  30   18   19 1
  31   18   29 1
  32   18   30 1
  33   19   31 1
  34   19   32 1

#	End of record

