#	Name: ASD01180048
#	Creating user name:	WinNT
#	Creation time:	15. 06. 2019 19:06

#	Modifying user name:	WinNT
#	Modification time:	15. 06. 2019 19:06

#	Program:	/corina/corina34_cracker 3.40 0067  02.08.2006

@<TRIPOS>MOLECULE
ASD01180048
 205  210    0    0    0
SMALL
NO_CHARGES


@<TRIPOS>ATOM
   1 N1           -12.0122    -0.8031     6.9489 N.3     
   2 C2           -10.8350    -1.2538     7.7032 C.3     
   3 C3            -9.7239    -0.2085     7.5869 C.3     
   4 C4           -11.2059    -1.4336     9.1527 C.2     
   5 N5           -10.4431    -2.2046     9.9529 N.am    
   6 O6           -12.1908    -0.8845     9.5993 O.2     
   7 C7            -9.2679    -0.1175     6.1534 C.2     
   8 C8            -9.2248     1.0022     5.4063 C.2     
   9 N9            -8.7518     0.6383     4.1744 N.pl3   
  10 C10           -8.5223    -0.6919     4.2116 C.2     
  11 N11           -8.8284    -1.1363     5.3999 N.2     
  12 C12          -10.8036    -2.3793    11.3620 C.3     
  13 C13          -10.8114    -1.0174    12.0592 C.3     
  14 C14          -12.1945    -3.0095    11.4582 C.3     
  15 C15           -9.7968    -3.2799    12.0302 C.2     
  16 N16           -9.2418    -4.2974    11.3423 N.am    
  17 O17           -9.4860    -3.0890    13.1868 O.2     
  18 C18           -8.2631    -5.1729    11.9919 C.3     
  19 C19           -8.9951    -6.2801    12.7528 C.3     
  20 C20           -9.8070    -5.6639    13.8939 C.3     
  21 C21           -7.3683    -5.7884    10.9470 C.2     
  22 N22           -6.3862    -6.6348    11.3148 N.am    
  23 O23           -7.5321    -5.5220     9.7752 O.2     
  24 C24           -5.5164    -7.2332    10.2991 C.3     
  25 C25           -4.5096    -8.1337    10.9672 C.2     
  26 N26           -3.6000    -8.7955    10.2247 N.am    
  27 O27           -4.5178    -8.2630    12.1731 O.2     
  28 C28           -2.6213    -9.6709    10.8742 C.3     
  29 C29           -3.2375   -11.0550    11.0876 C.3     
  30 O30           -3.5024   -11.6590     9.8199 O.3     
  31 C31           -4.5452   -10.9160    11.8695 C.3     
  32 C32           -1.3997    -9.7942    10.0003 C.2     
  33 N33           -0.3609   -10.5554    10.3977 N.am    
  34 O34           -1.3515    -9.2085     8.9394 O.2     
  35 C35            0.8266   -10.6752     9.5482 C.3     
  36 C36            0.4284   -11.2702     8.1960 C.3     
  37 C37            1.4428    -9.2912     9.3348 C.3     
  38 C38            1.7539    -8.6683    10.6714 C.ar    
  39 C39            2.9958    -8.8599    11.2524 C.ar    
  40 C40            3.2802    -8.2870    12.4806 C.ar    
  41 C41            2.3244    -7.5249    13.1248 C.ar    
  42 C42            1.0844    -7.3343    12.5436 C.ar    
  43 C43            0.8014    -7.9010    11.3150 C.ar    
  44 F44            3.9294    -9.6055    10.6218 F       
  45 C45            1.8334   -11.5758    10.2163 C.2     
  46 N46            2.9457   -11.9511     9.5543 N.am    
  47 O47            1.6427   -11.9629    11.3498 O.2     
  48 C48            3.8782   -12.9000    10.1677 C.3     
  49 C49            5.2721   -12.6338     9.6604 C.2     
  50 C50            3.4667   -14.3277     9.8028 C.3     
  51 O51            2.1997   -14.6240    10.3937 O.3     
  52 C52            3.3623   -14.4554     8.2817 C.3     
  53 N53            6.3303   -13.2106    10.2636 N.am    
  54 O54            5.4415   -11.9005     8.7094 O.2     
  55 C55            7.6907   -12.8668     9.8422 C.3     
  56 C56            8.6218   -14.0044    10.1737 C.2     
  57 C57            8.1477   -11.6037    10.5748 C.3     
  58 O58            8.2612   -11.8785    11.9726 O.3     
  59 N59            9.8684   -14.0260     9.6618 N.am    
  60 O60            8.2494   -14.9006    10.9012 O.2     
  61 C61           10.7357   -15.1835     9.8942 C.3     
  62 C62           11.4129   -15.0431    11.2331 C.2     
  63 C63           11.7947   -15.2567     8.7923 C.3     
  64 N64           12.1310   -16.0669    11.7358 N.am    
  65 O65           11.3117   -14.0089    11.8584 O.2     
  66 C66           12.8798   -15.8937    12.9830 C.3     
  67 C67           14.2507   -15.3492    12.6744 C.2     
  68 N68           15.1211   -15.1084    13.6748 N.am    
  69 O69           14.5708   -15.1277    11.5257 O.2     
  70 C70           13.0145   -17.2444    13.6888 C.3     
  71 C71           11.6448   -17.7701    14.0332 C.ar    
  72 C72           11.0141   -18.6597    13.1822 C.ar    
  73 C73            9.7595   -19.1439    13.4924 C.ar    
  74 C74            9.1283   -18.7354    14.6657 C.ar    
  75 C75            9.7686   -17.8393    15.5196 C.ar    
  76 C76           11.0254   -17.3655    15.2019 C.ar    
  77 C77            7.7795   -19.2521    15.0043 C.ar    
  78 C78            6.7304   -18.3650    15.2380 C.ar    
  79 C79            5.4775   -18.8483    15.5526 C.ar    
  80 C80            5.2609   -20.2169    15.6366 C.ar    
  81 C81            6.3043   -21.1032    15.4043 C.ar    
  82 C82            7.5576   -20.6260    15.0837 C.ar    
  83 C83            8.6893   -21.5886    14.8312 C.3     
  84 C84            9.5385   -21.7207    16.0970 C.3     
  85 C85           16.4538   -14.5791    13.3748 C.3     
  86 C86           17.3816   -15.7172    13.0354 C.2     
  87 N87           18.6686   -15.4671    12.7231 N.am    
  88 O88           16.9701   -16.8580    13.0434 O.2     
  89 C89           16.9914   -13.8294    14.5954 C.3     
  90 C90           16.1325   -12.6199    14.8605 C.ar    
  91 C91           15.0349   -12.7239    15.6958 C.ar    
  92 C92           14.2448   -11.6194    15.9421 C.ar    
  93 C93           14.5546   -10.3979    15.3476 C.ar    
  94 C94           15.6614   -10.2988    14.5070 C.ar    
  95 C95           16.4479   -11.4084    14.2721 C.ar    
  96 C96           13.7085    -9.2070    15.6082 C.ar    
  97 C97           14.2950    -8.0036    15.9938 C.ar    
  98 C98           13.5032    -6.8989    16.2351 C.ar    
  99 C99           12.1300    -6.9854    16.0951 C.ar    
 100 C100          11.5423    -8.1780    15.7129 C.ar    
 101 C101          12.3249    -9.2868    15.4627 C.ar    
 102 C102          15.7911    -7.9081    16.1477 C.3     
 103 C103         -10.5280    -6.7544    14.6434 C.2     
 104 O104         -10.4051    -7.9064    14.3002 O.2     
 105 O105         -11.3067    -6.4461    15.6923 O.3     
 106 C106          11.1205   -15.4646     7.4607 C.2     
 107 O107           9.9144   -15.4674     7.3880 O.2     
 108 O108          11.8598   -15.6468     6.3552 O.3     
 109 O109           4.0257   -20.6901    15.9472 O.3     
 110 C110           2.9986   -19.7229    16.1742 C.3     
 111 H111         -12.7371    -1.5049     6.9565 H       
 112 H112         -12.3560     0.0757     7.3062 H       
 113 H113         -10.4850    -2.2029     7.2973 H       
 114 H114         -10.1020     0.7613     7.9102 H       
 115 H115          -8.8838    -0.4996     8.2176 H       
 116 H116          -9.6554    -2.6437     9.5957 H       
 117 H117          -9.5090     1.9961     5.7190 H       
 118 H118          -8.6084     1.2262     3.4163 H       
 119 H119          -8.1440    -1.2885     3.3947 H       
 120 H120         -11.5396    -0.3660    11.5759 H       
 121 H121         -11.0796    -1.1474    13.1076 H       
 122 H122          -9.8205    -0.5685    11.9906 H       
 123 H123         -12.1889    -3.9797    10.9616 H       
 124 H124         -12.4627    -3.1395    12.5067 H       
 125 H125         -12.9227    -2.3581    10.9750 H       
 126 H126          -9.4904    -4.4501    10.4172 H       
 127 H127          -7.6605    -4.5902    12.6887 H       
 128 H128          -9.6652    -6.8063    12.0730 H       
 129 H129          -8.2681    -6.9817    13.1618 H       
 130 H130          -9.1368    -5.1376    14.5737 H       
 131 H131         -10.5340    -4.9623    13.4849 H       
 132 H132          -6.2552    -6.8479    12.2520 H       
 133 H133          -6.1189    -7.8158     9.6022 H       
 134 H134          -4.9949    -6.4444     9.7569 H       
 135 H135          -3.5935    -8.6920     9.2603 H       
 136 H136          -2.3376    -9.2471    11.8375 H       
 137 H137          -2.5428   -11.6793    11.6495 H       
 138 H138          -4.1146   -11.1566     9.2651 H       
 139 H139          -5.2399   -10.2916    11.3076 H       
 140 H140          -4.9843   -11.9020    12.0215 H       
 141 H141          -4.3432   -10.4552    12.8365 H       
 142 H142          -0.3995   -11.0239    11.2462 H       
 143 H143          -0.2998   -10.6188     7.7128 H       
 144 H144           1.3119   -11.3594     7.5640 H       
 145 H145          -0.0106   -12.2562     8.3480 H       
 146 H146           2.3616    -9.3878     8.7563 H       
 147 H147           0.7381    -8.6591     8.7946 H       
 148 H148           4.2486    -8.4360    12.9349 H       
 149 H149           2.5459    -7.0783    14.0829 H       
 150 H150           0.3379    -6.7388    13.0480 H       
 151 H151          -0.1675    -7.7514    10.8619 H       
 152 H152           3.1289   -11.5929     8.6717 H       
 153 H153           3.8570   -12.7814    11.2511 H       
 154 H154           4.2142   -15.0279    10.1758 H       
 155 H155           2.2115   -14.6434    11.3604 H       
 156 H156           4.3478   -14.3167     7.8370 H       
 157 H157           2.9840   -15.4449     8.0253 H       
 158 H158           2.6809   -13.6955     7.8992 H       
 159 H159           6.1913   -13.8533    10.9766 H       
 160 H160           7.7038   -12.6881     8.7671 H       
 161 H161           9.1163   -11.2888    10.1866 H       
 162 H162           7.4180   -10.8092    10.4189 H       
 163 H163           8.4732   -11.1030    12.5099 H       
 164 H164          10.1913   -13.2751     9.1396 H       
 165 H165          10.1369   -16.0942     9.8836 H       
 166 H166          12.3618   -14.3261     8.7710 H       
 167 H167          12.4697   -16.0890     8.9917 H       
 168 H168          12.1521   -16.9184    11.2717 H       
 169 H169          12.3494   -15.1962    13.6313 H       
 170 H170          14.8651   -15.2856    14.5935 H       
 171 H171          13.5193   -17.9503    13.0292 H       
 172 H172          13.5965   -17.1207    14.6021 H       
 173 H173          11.5042   -18.9756    12.2732 H       
 174 H174           9.2677   -19.8379    12.8269 H       
 175 H175           9.2838   -17.5191    16.4300 H       
 176 H176          11.5227   -16.6713    15.8631 H       
 177 H177           6.8984   -17.3001    15.1731 H       
 178 H178           4.6642   -18.1613    15.7342 H       
 179 H179           6.1328   -22.1674    15.4703 H       
 180 H180           8.2836   -22.5639    14.5624 H       
 181 H181           9.3086   -21.2154    14.0155 H       
 182 H182           9.8719   -20.7330    16.4155 H       
 183 H183           8.9428   -22.1758    16.8883 H       
 184 H184          10.4057   -22.3474    15.8889 H       
 185 H185          16.3913   -13.8963    12.5275 H       
 186 H186          18.9977   -14.5547    12.7167 H       
 187 H187          19.2657   -16.1996    12.5046 H       
 188 H188          16.9706   -14.4874    15.4641 H       
 189 H189          18.0166   -13.5122    14.4044 H       
 190 H190          14.7955   -13.6713    16.1558 H       
 191 H191          13.3878   -11.7018    16.5942 H       
 192 H192          15.9060    -9.3545    14.0436 H       
 193 H193          17.3060   -11.3328    13.6208 H       
 194 H194          13.9568    -5.9655    16.5341 H       
 195 H195          11.5142    -6.1188    16.2852 H       
 196 H196          10.4694    -8.2402    15.6058 H       
 197 H197          11.8650   -10.2174    15.1644 H       
 198 H198          16.2357    -7.6099    15.1983 H       
 199 H199          16.0314    -7.1671    16.9101 H       
 200 H200          16.1883    -8.8783    16.4461 H       
 201 H201         -11.7488    -7.1795    16.1415 H       
 202 H202          11.3825   -15.7762     5.5242 H       
 203 H203           2.0653   -20.2331    16.4123 H       
 204 H204           3.2834   -19.0790    17.0063 H       
 205 H205           2.8638   -19.1187    15.2770 H       
@<TRIPOS>BOND
   1    1    2 1
   2    1  111 1
   3    1  112 1
   4    2    3 1
   5    2    4 1
   6    2  113 1
   7    3    7 1
   8    3  114 1
   9    3  115 1
  10    4    5 am
  11    4    6 2
  12    5   12 1
  13    5  116 1
  14    7    8 2
  15    7   11 1
  16    8    9 1
  17    8  117 1
  18    9   10 1
  19    9  118 1
  20   10   11 2
  21   10  119 1
  22   12   13 1
  23   12   14 1
  24   12   15 1
  25   13  120 1
  26   13  121 1
  27   13  122 1
  28   14  123 1
  29   14  124 1
  30   14  125 1
  31   15   16 am
  32   15   17 2
  33   16   18 1
  34   16  126 1
  35   18   19 1
  36   18   21 1
  37   18  127 1
  38   19   20 1
  39   19  128 1
  40   19  129 1
  41   20  103 1
  42   20  130 1
  43   20  131 1
  44   21   22 am
  45   21   23 2
  46   22   24 1
  47   22  132 1
  48   24   25 1
  49   24  133 1
  50   24  134 1
  51   25   26 am
  52   25   27 2
  53   26   28 1
  54   26  135 1
  55   28   29 1
  56   28   32 1
  57   28  136 1
  58   29   30 1
  59   29   31 1
  60   29  137 1
  61   30  138 1
  62   31  139 1
  63   31  140 1
  64   31  141 1
  65   32   33 am
  66   32   34 2
  67   33   35 1
  68   33  142 1
  69   35   36 1
  70   35   37 1
  71   35   45 1
  72   36  143 1
  73   36  144 1
  74   36  145 1
  75   37   38 1
  76   37  146 1
  77   37  147 1
  78   38   39 ar
  79   38   43 ar
  80   39   40 ar
  81   39   44 1
  82   40   41 ar
  83   40  148 1
  84   41   42 ar
  85   41  149 1
  86   42   43 ar
  87   42  150 1
  88   43  151 1
  89   45   46 am
  90   45   47 2
  91   46   48 1
  92   46  152 1
  93   48   49 1
  94   48   50 1
  95   48  153 1
  96   49   53 am
  97   49   54 2
  98   50   51 1
  99   50   52 1
 100   50  154 1
 101   51  155 1
 102   52  156 1
 103   52  157 1
 104   52  158 1
 105   53   55 1
 106   53  159 1
 107   55   56 1
 108   55   57 1
 109   55  160 1
 110   56   59 am
 111   56   60 2
 112   57   58 1
 113   57  161 1
 114   57  162 1
 115   58  163 1
 116   59   61 1
 117   59  164 1
 118   61   62 1
 119   61   63 1
 120   61  165 1
 121   62   64 am
 122   62   65 2
 123   63  106 1
 124   63  166 1
 125   63  167 1
 126   64   66 1
 127   64  168 1
 128   66   67 1
 129   66   70 1
 130   66  169 1
 131   67   68 am
 132   67   69 2
 133   68   85 1
 134   68  170 1
 135   70   71 1
 136   70  171 1
 137   70  172 1
 138   71   72 ar
 139   71   76 ar
 140   72   73 ar
 141   72  173 1
 142   73   74 ar
 143   73  174 1
 144   74   75 ar
 145   74   77 1
 146   75   76 ar
 147   75  175 1
 148   76  176 1
 149   77   78 ar
 150   77   82 ar
 151   78   79 ar
 152   78  177 1
 153   79   80 ar
 154   79  178 1
 155   80   81 ar
 156   80  109 1
 157   81   82 ar
 158   81  179 1
 159   82   83 1
 160   83   84 1
 161   83  180 1
 162   83  181 1
 163   84  182 1
 164   84  183 1
 165   84  184 1
 166   85   86 1
 167   85   89 1
 168   85  185 1
 169   86   87 am
 170   86   88 2
 171   87  186 1
 172   87  187 1
 173   89   90 1
 174   89  188 1
 175   89  189 1
 176   90   91 ar
 177   90   95 ar
 178   91   92 ar
 179   91  190 1
 180   92   93 ar
 181   92  191 1
 182   93   94 ar
 183   93   96 1
 184   94   95 ar
 185   94  192 1
 186   95  193 1
 187   96   97 ar
 188   96  101 ar
 189   97   98 ar
 190   97  102 1
 191   98   99 ar
 192   98  194 1
 193   99  100 ar
 194   99  195 1
 195  100  101 ar
 196  100  196 1
 197  101  197 1
 198  102  198 1
 199  102  199 1
 200  102  200 1
 201  103  104 2
 202  103  105 1
 203  105  201 1
 204  106  107 2
 205  106  108 1
 206  108  202 1
 207  109  110 1
 208  110  203 1
 209  110  204 1
 210  110  205 1

#	End of record

