#	Name: ASD07301039
#	Creating user name:	WinNT
#	Creation time:	15. 06. 2019 21:10

#	Modifying user name:	WinNT
#	Modification time:	15. 06. 2019 21:10

#	Program:	/corina/corina34_cracker 3.40 0067  02.08.2006

@<TRIPOS>MOLECULE
ASD07301039
  31   33    0    0    0
SMALL
NO_CHARGES


@<TRIPOS>ATOM
   1 C1            -0.0171     1.4113     0.0098 C.2     
   2 C2             0.0021    -0.0041     0.0020 C.2     
   3 C3             1.2668    -0.6471    -0.0135 C.2     
   4 C4             2.3777     0.1400    -0.0199 C.2     
   5 N5             2.2504     1.4888    -0.0114 N.pl3   
   6 N6             1.1087     2.0731     0.0026 N.2     
   7 O7            -1.0365    -0.6509     0.0089 O.2     
   8 O8             6.8260     4.6044    -0.0156 O.3     
   9 C9             7.6325     4.5855    -1.1983 C.3     
  10 C10            6.7079     4.7439    -2.4129 C.3     
  11 O11            5.7782     3.6550    -2.4131 O.3     
  12 C12            5.1782     3.3623    -1.2263 C.ar    
  13 C13            5.7028     3.8350    -0.0282 C.ar    
  14 C14            4.0318     2.5845    -1.2197 C.ar    
  15 C15            3.4087     2.2745    -0.0178 C.ar    
  16 C16            3.9366     2.7460     1.1794 C.ar    
  17 C17            5.0799     3.5235     1.1718 C.ar    
  18 F18            3.3321     2.4447     2.3495 F       
  19 F19            6.0150     5.9559    -2.3236 F       
  20 F20            7.4651     4.7179    -3.5890 F       
  21 F21            8.5485     5.6423    -1.1617 F       
  22 F22            8.3179     3.3688    -1.2826 F       
  23 O23            1.3659    -2.0034    -0.0213 O.3     
  24 C24            2.6830    -2.5576    -0.0369 C.3     
  25 Br25          -1.6647     2.3392     0.0226 Br      
  26 H26            3.3593    -0.3103    -0.0313 H       
  27 H27            3.6227     2.2185    -2.1497 H       
  28 H28            5.4890     3.8892     2.1020 H       
  29 H29            3.2085    -2.2204    -0.9303 H       
  30 H30            3.2258    -2.2293     0.8495 H       
  31 H31            2.6194    -3.6457    -0.0417 H       
@<TRIPOS>BOND
   1    1    2 1
   2    1    6 2
   3    1   25 1
   4    2    3 1
   5    2    7 2
   6    3    4 2
   7    3   23 1
   8    4    5 1
   9    4   26 1
  10    5    6 1
  11    5   15 1
  12    8    9 1
  13    8   13 1
  14    9   10 1
  15    9   21 1
  16    9   22 1
  17   10   11 1
  18   10   19 1
  19   10   20 1
  20   11   12 1
  21   12   13 ar
  22   12   14 ar
  23   13   17 ar
  24   14   15 ar
  25   14   27 1
  26   15   16 ar
  27   16   17 ar
  28   16   18 1
  29   17   28 1
  30   23   24 1
  31   24   29 1
  32   24   30 1
  33   24   31 1

#	End of record

