#	Name: ASD01816274
#	Creating user name:	WinNT
#	Creation time:	15. 06. 2019 19:34

#	Modifying user name:	WinNT
#	Modification time:	15. 06. 2019 19:34

#	Program:	/corina/corina34_cracker 3.40 0067  02.08.2006

@<TRIPOS>MOLECULE
ASD01816274
  57   62    0    0    0
SMALL
NO_CHARGES


@<TRIPOS>ATOM
   1 C1            -0.0167     1.3813     0.0096 C.ar    
   2 C2             0.0021    -0.0041     0.0020 C.ar    
   3 C3             1.1984    -0.6909    -0.0131 C.ar    
   4 C4             2.4015     0.0059    -0.0208 C.ar    
   5 C5             2.3790     1.4106    -0.0130 C.ar    
   6 C6             1.1663     2.0916     0.0022 C.ar    
   7 N7             3.6053    -0.6772    -0.0354 N.pl3   
   8 C8             4.7970    -0.0586    -0.0430 C.2     
   9 C9             4.9000     1.3103    -0.0371 C.2     
  10 C10            3.6670     2.1302    -0.0215 C.2     
  11 C11            5.9971     2.2729    -0.0417 C.2     
  12 N12            5.4245     3.4960    -0.0302 N.am    
  13 N13            4.0323     3.3799    -0.0182 N.2     
  14 O14            7.1914     2.0229    -0.0531 O.2     
  15 C15            3.5779    -2.1419    -0.0425 C.3     
  16 C16            3.5553    -2.6370    -1.4657 C.ar    
  17 C17            4.7430    -2.8861    -2.1285 C.ar    
  18 C18            4.7254    -3.3395    -3.4331 C.ar    
  19 C19            3.5137    -3.5456    -4.0786 C.ar    
  20 C20            2.3228    -3.2951    -3.4103 C.ar    
  21 C21            2.3467    -2.8468    -2.1041 C.ar    
  22 N22            3.4926    -4.0053    -5.4028 N.pl3   
  23 C23            2.3877    -4.2463    -6.1441 C.2     
  24 C24            2.7941    -4.6753    -7.3615 C.2     
  25 C25            4.1931    -4.6976    -7.3654 C.2     
  26 N26            4.6127    -4.2906    -6.1944 N.2     
  27 C27            6.1259     4.7074    -0.0291 C.ar    
  28 C28            5.4346     5.9120    -0.0168 C.ar    
  29 C29            6.1296     7.1053    -0.0153 C.ar    
  30 C30            7.5125     7.1019    -0.0260 C.ar    
  31 C31            8.2039     5.9043    -0.0382 C.ar    
  32 C32            7.5149     4.7074    -0.0345 C.ar    
  33 C33            9.7108     5.9052    -0.0499 C.3     
  34 F34           10.1763     7.2245    -0.0458 F       
  35 F35           10.1864     5.2395     1.0849 F       
  36 F36           10.1687     5.2527    -1.1995 F       
  37 C37            5.3803     8.4128    -0.0024 C.3     
  38 F38            5.1582     8.8100     1.3205 F       
  39 F39            6.1346     9.3891    -0.6621 F       
  40 F40            4.1525     8.2530    -0.6538 F       
  41 H41           -0.9602     1.9068     0.0169 H       
  42 H42           -0.9288    -0.5516     0.0083 H       
  43 H43            1.2004    -1.7709    -0.0185 H       
  44 H44            1.1506     3.1715     0.0084 H       
  45 H45            5.6983    -0.6536    -0.0536 H       
  46 H46            4.4657    -2.5244     0.4612 H       
  47 H47            2.6861    -2.4911     0.4779 H       
  48 H48            5.6853    -2.7256    -1.6258 H       
  49 H49            5.6534    -3.5332    -3.9505 H       
  50 H50            1.3787    -3.4541    -3.9100 H       
  51 H51            1.4207    -2.6517    -1.5837 H       
  52 H52            1.3646    -4.1197    -5.8222 H       
  53 H53            2.1520    -4.9516    -8.1847 H       
  54 H54            4.8191    -4.9951    -8.1937 H       
  55 H55            4.3546     5.9154    -0.0088 H       
  56 H56            8.0537     8.0365    -0.0251 H       
  57 H57            8.0555     3.7724    -0.0438 H       
@<TRIPOS>BOND
   1    1    2 ar
   2    1    6 ar
   3    1   41 1
   4    2    3 ar
   5    2   42 1
   6    3    4 ar
   7    3   43 1
   8    4    5 ar
   9    4    7 1
  10    5    6 ar
  11    5   10 1
  12    6   44 1
  13    7    8 1
  14    7   15 1
  15    8    9 2
  16    8   45 1
  17    9   10 1
  18    9   11 1
  19   10   13 2
  20   11   12 am
  21   11   14 2
  22   12   13 1
  23   12   27 1
  24   15   16 1
  25   15   46 1
  26   15   47 1
  27   16   17 ar
  28   16   21 ar
  29   17   18 ar
  30   17   48 1
  31   18   19 ar
  32   18   49 1
  33   19   20 ar
  34   19   22 1
  35   20   21 ar
  36   20   50 1
  37   21   51 1
  38   22   23 1
  39   22   26 1
  40   23   24 2
  41   23   52 1
  42   24   25 1
  43   24   53 1
  44   25   26 2
  45   25   54 1
  46   27   28 ar
  47   27   32 ar
  48   28   29 ar
  49   28   55 1
  50   29   30 ar
  51   29   37 1
  52   30   31 ar
  53   30   56 1
  54   31   32 ar
  55   31   33 1
  56   32   57 1
  57   33   34 1
  58   33   35 1
  59   33   36 1
  60   37   38 1
  61   37   39 1
  62   37   40 1

#	End of record

