#	Name: ASD09610064
#	Creating user name:	WinNT
#	Creation time:	15. 06. 2019 21:22

#	Modifying user name:	WinNT
#	Modification time:	15. 06. 2019 21:22

#	Program:	/corina/corina34_cracker 3.40 0067  02.08.2006

@<TRIPOS>MOLECULE
ASD09610064
  68   72    0    0    0
SMALL
NO_CHARGES


@<TRIPOS>ATOM
   1 S1            -0.0270     1.6919    -0.0702 S.3     
   2 C2             0.0012    -0.0154    -0.0965 C.2     
   3 N3             1.2129    -0.4474    -0.0873 N.2     
   4 C4             2.1635     0.4904    -0.0601 C.2     
   5 C5             1.6812     1.7534    -0.0467 C.2     
   6 C6             3.6026     0.1780    -0.0460 C.2     
   7 O7             4.4204     1.0744    -0.1296 O.2     
   8 N8             4.0134    -1.1013     0.0596 N.am    
   9 C9             5.4381    -1.4245    -0.0499 C.3     
  10 C10            5.6497    -2.3766    -1.2252 C.3     
  11 C11            7.1005    -2.8717    -1.1909 C.3     
  12 C12            7.2633    -3.8027     0.0089 C.3     
  13 C13            6.7449    -3.1472     1.2621 C.ar    
  14 C14            7.1421    -3.6794     2.4822 C.ar    
  15 C15            6.6980    -3.1275     3.6657 C.ar    
  16 C16            5.8505    -2.0354     3.6385 C.ar    
  17 C17            5.4566    -1.5041     2.4281 C.ar    
  18 C18            5.9039    -2.0577     1.2351 C.ar    
  19 N19           -4.0128    -1.3582    -0.1692 N.am    
  20 C20           -3.2994    -1.5427     1.1020 C.3     
  21 C21           -2.0738    -0.6238     1.1175 C.3     
  22 C22           -1.2230    -0.8937    -0.1256 C.3     
  23 C23           -2.0410    -0.5868    -1.3821 C.3     
  24 C24           -3.2662    -1.5053    -1.4260 C.3     
  25 C25           -5.3282    -1.0651    -0.1821 C.2     
  26 O26           -5.9344    -0.9513     0.8621 O.2     
  27 C27           -6.0458    -0.8788    -1.4942 C.3     
  28 N28           -7.4552    -0.5702    -1.2404 N.pl3   
  29 N29           -8.0021     0.7090    -1.0757 N.2     
  30 C30           -9.2874     0.5803    -0.8677 C.2     
  31 C31           -9.5999    -0.7828    -0.8931 C.2     
  32 C32           -8.4570    -1.4676    -1.1297 C.2     
  33 C33          -10.2626     1.7064    -0.6396 C.3     
  34 F34           -9.6056     2.9314    -0.7966 F       
  35 F35          -11.3061     1.6146    -1.5669 F       
  36 F36          -10.7816     1.6184     0.6566 F       
  37 C37           -8.3258    -2.9644    -1.2450 C.3     
  38 C38            3.0353    -2.1687     0.2837 C.3     
  39 H39            2.2774     2.6537    -0.0247 H       
  40 H40            6.0017    -0.5079    -0.2238 H       
  41 H41            4.9703    -3.2245    -1.1379 H       
  42 H42            5.4632    -1.8510    -2.1617 H       
  43 H43            7.3252    -3.4139    -2.1095 H       
  44 H44            7.7761    -2.0222    -1.0908 H       
  45 H45            6.7073    -4.7227    -0.1719 H       
  46 H46            8.3190    -4.0411     0.1383 H       
  47 H47            7.8039    -4.5327     2.5044 H       
  48 H48            7.0115    -3.5467     4.6104 H       
  49 H49            5.4977    -1.6001     4.5618 H       
  50 H50            4.7945    -0.6512     2.4077 H       
  51 H51           -3.9586    -1.2867     1.9314 H       
  52 H52           -2.9791    -2.5805     1.1940 H       
  53 H53           -2.3992     0.4166     1.1169 H       
  54 H54           -1.4832    -0.8202     2.0123 H       
  55 H55           -0.9189    -1.9403    -0.1372 H       
  56 H56           -2.3666     0.4532    -1.3592 H       
  57 H57           -1.4269    -0.7568    -2.2665 H       
  58 H58           -2.9432    -2.5401    -1.5402 H       
  59 H59           -3.9035    -1.2246    -2.2646 H       
  60 H60           -5.5876    -0.0577    -2.0455 H       
  61 H61           -5.9743    -1.7948    -2.0806 H       
  62 H62          -10.5808    -1.2125    -0.7533 H       
  63 H63           -8.1258    -3.3885    -0.2610 H       
  64 H64           -9.2528    -3.3812    -1.6387 H       
  65 H65           -7.5038    -3.2062    -1.9188 H       
  66 H66            2.6130    -2.4809    -0.6714 H       
  67 H67            3.5265    -3.0178     0.7588 H       
  68 H68            2.2385    -1.8014     0.9305 H       
@<TRIPOS>BOND
   1    1    2 1
   2    1    5 1
   3    2    3 2
   4    2   22 1
   5    3    4 1
   6    4    5 2
   7    4    6 1
   8    5   39 1
   9    6    7 2
  10    6    8 am
  11    8   38 1
  12    8    9 1
  13    9   10 1
  14    9   18 1
  15    9   40 1
  16   10   11 1
  17   10   41 1
  18   10   42 1
  19   11   12 1
  20   11   43 1
  21   11   44 1
  22   12   13 1
  23   12   45 1
  24   12   46 1
  25   13   14 ar
  26   13   18 ar
  27   14   15 ar
  28   14   47 1
  29   15   16 ar
  30   15   48 1
  31   16   17 ar
  32   16   49 1
  33   17   18 ar
  34   17   50 1
  35   19   20 1
  36   19   24 1
  37   19   25 am
  38   20   21 1
  39   20   51 1
  40   20   52 1
  41   21   22 1
  42   21   53 1
  43   21   54 1
  44   22   23 1
  45   22   55 1
  46   23   24 1
  47   23   56 1
  48   23   57 1
  49   24   58 1
  50   24   59 1
  51   25   26 2
  52   25   27 1
  53   27   28 1
  54   27   60 1
  55   27   61 1
  56   28   29 1
  57   28   32 1
  58   29   30 2
  59   30   31 1
  60   30   33 1
  61   31   32 2
  62   31   62 1
  63   32   37 1
  64   33   34 1
  65   33   35 1
  66   33   36 1
  67   37   63 1
  68   37   64 1
  69   37   65 1
  70   38   66 1
  71   38   67 1
  72   38   68 1

#	End of record

