#	Name: ASD01840485
#	Creating user name:	WinNT
#	Creation time:	15. 06. 2019 19:37

#	Modifying user name:	WinNT
#	Modification time:	15. 06. 2019 19:37

#	Program:	/corina/corina34_cracker 3.40 0067  02.08.2006

@<TRIPOS>MOLECULE
ASD01840485
  42   45    0    0    0
SMALL
NO_CHARGES


@<TRIPOS>ATOM
   1 C1            -0.4210     1.7001    -0.5145 C.ar    
   2 C2            -0.4521     0.3986    -0.9648 C.ar    
   3 N3             0.6055    -0.3812    -0.8198 N.ar    
   4 N4             1.6890     0.0202    -0.2674 N.ar    
   5 C5             0.7657     2.1630     0.0983 C.ar    
   6 C6             1.0848     3.4627     0.6595 C.2     
   7 C7             1.8325     1.2606     0.2051 C.ar    
   8 S8             3.2003     2.0357     0.9916 S.3     
   9 C9             2.3374     3.5507     1.1717 C.2     
  10 C10           -1.6148     2.6055    -0.6760 C.3     
  11 C11           -1.6961    -0.1383    -1.6246 C.3     
  12 N12            0.1876     4.5221     0.6706 N.pl3   
  13 C13            2.8953     4.7519     1.7913 C.2     
  14 O14            2.2225     5.7633     1.8728 O.2     
  15 N15            4.1543     4.7394     2.2721 N.am    
  16 C16            5.0427     5.7031     2.9391 C.3     
  17 C17            5.2420     3.7541     2.3667 C.3     
  18 C18            6.2321     4.9303     2.3524 C.3     
  19 F19            6.6135     5.3490     1.0732 F       
  20 C20            7.3924     4.7691     3.3004 C.ar    
  21 C21            7.6577     3.5351     3.8642 C.ar    
  22 C22            8.7217     3.3867     4.7338 C.ar    
  23 C23            9.5214     4.4734     5.0399 C.ar    
  24 C24            9.2554     5.7081     4.4753 C.ar    
  25 C25            8.1945     5.8541     3.6015 C.ar    
  26 Cl26          10.8577     4.2878     6.1325 Cl      
  27 H27           -2.2039     2.5971     0.2411 H       
  28 H28           -1.2756     3.6210    -0.8807 H       
  29 H29           -2.2284     2.2533    -1.5052 H       
  30 H30           -1.6438     0.0404    -2.6985 H       
  31 H31           -1.7731    -1.2094    -1.4378 H       
  32 H32           -2.5713     0.3658    -1.2145 H       
  33 H33           -0.7552     4.3610     0.5094 H       
  34 H34            0.5036     5.4235     0.8395 H       
  35 H35            4.9510     6.7180     2.5520 H       
  36 H36            4.9912     5.6602     4.0270 H       
  37 H37            5.2430     3.1973     3.3038 H       
  38 H38            5.3200     3.1084     1.4920 H       
  39 H39            7.0332     2.6869     3.6255 H       
  40 H40            8.9287     2.4226     5.1745 H       
  41 H41            9.8793     6.5568     4.7139 H       
  42 H42            7.9894     6.8169     3.1573 H       
@<TRIPOS>BOND
   1    1    2 ar
   2    1    5 ar
   3    1   10 1
   4    2   11 1
   5    2    3 ar
   6    3    4 ar
   7    4    7 ar
   8    5    7 ar
   9    5    6 1
  10    6    9 2
  11    6   12 1
  12    7    8 1
  13    8    9 1
  14    9   13 1
  15   10   27 1
  16   10   28 1
  17   10   29 1
  18   11   30 1
  19   11   31 1
  20   11   32 1
  21   12   33 1
  22   12   34 1
  23   13   14 2
  24   13   15 am
  25   15   16 1
  26   15   17 1
  27   16   18 1
  28   16   35 1
  29   16   36 1
  30   17   18 1
  31   17   37 1
  32   17   38 1
  33   18   19 1
  34   18   20 1
  35   20   21 ar
  36   20   25 ar
  37   21   22 ar
  38   21   39 1
  39   22   23 ar
  40   22   40 1
  41   23   24 ar
  42   23   26 1
  43   24   25 ar
  44   24   41 1
  45   25   42 1

#	End of record

