#	Name: ASD02500859
#	Creating user name:	WinNT
#	Creation time:	15. 06. 2019 20:23

#	Modifying user name:	WinNT
#	Modification time:	15. 06. 2019 20:23

#	Program:	/corina/corina34_cracker 3.40 0067  02.08.2006

@<TRIPOS>MOLECULE
ASD02500859
  31   32    0    0    0
SMALL
NO_CHARGES


@<TRIPOS>ATOM
   1 C1             2.0157     1.5077    -0.2541 C.ar    
   2 C2             2.0013     0.1606    -0.5371 C.ar    
   3 C3             1.3076     1.9991     0.8366 C.ar    
   4 C4             0.5814     1.1343     1.6472 C.ar    
   5 C5             0.5599    -0.2148     1.3736 C.ar    
   6 C6             1.2714    -0.7153     0.2761 C.ar    
   7 C7             1.2519    -2.1532    -0.0211 C.2     
   8 C8             0.0942    -2.8533     0.0887 C.2     
   9 C9            -1.2575    -2.3318     0.3229 C.2     
  10 N10           -2.2069    -3.2505     0.3849 N.am    
  11 C11           -1.8863    -4.5410     0.2363 C.2     
  12 S12           -0.1349    -4.6096    -0.0256 S.3     
  13 S13           -2.9631    -5.8711     0.2836 S.2     
  14 O14           -1.4874    -1.1435     0.4509 O.2     
  15 C15           -3.5994    -2.8580     0.6152 C.3     
  16 C16           -4.2771    -2.6112    -0.7081 C.2     
  17 O17           -5.5661    -2.2382    -0.7427 O.3     
  18 O18           -3.6602    -2.7490    -1.7378 O.2     
  19 O19            1.3256     3.3286     1.1114 O.3     
  20 C20            0.5765     3.7666     2.2467 C.3     
  21 H21            2.5819     2.1835    -0.8779 H       
  22 H22            2.5515    -0.2201    -1.3849 H       
  23 H23            0.0333     1.5213     2.4935 H       
  24 H24           -0.0043    -0.8858     2.0042 H       
  25 H25            2.1587    -2.6537    -0.3270 H       
  26 H26           -4.1188    -3.6558     1.1461 H       
  27 H27           -3.6260    -1.9467     1.2126 H       
  28 H28           -5.9573    -2.0915    -1.6148 H       
  29 H29           -0.4740     3.5101     2.1099 H       
  30 H30            0.9563     3.2770     3.1435 H       
  31 H31            0.6759     4.8469     2.3528 H       
@<TRIPOS>BOND
   1    1    2 ar
   2    1    3 ar
   3    1   21 1
   4    2    6 ar
   5    2   22 1
   6    3    4 ar
   7    3   19 1
   8    4    5 ar
   9    4   23 1
  10    5    6 ar
  11    5   24 1
  12    6    7 1
  13    7    8 2
  14    7   25 1
  15    8    9 1
  16    8   12 1
  17    9   10 am
  18    9   14 2
  19   10   11 am
  20   10   15 1
  21   11   12 1
  22   11   13 2
  23   15   16 1
  24   15   26 1
  25   15   27 1
  26   16   17 1
  27   16   18 2
  28   17   28 1
  29   19   20 1
  30   20   29 1
  31   20   30 1
  32   20   31 1

#	End of record

