#	Name: ASD01028271
#	Creating user name:	WinNT
#	Creation time:	15. 06. 2019 18:56

#	Modifying user name:	WinNT
#	Modification time:	15. 06. 2019 18:56

#	Program:	/corina/corina34_cracker 3.40 0067  02.08.2006

@<TRIPOS>MOLECULE
ASD01028271
  44   48    0    0    0
SMALL
NO_CHARGES


@<TRIPOS>ATOM
   1 C1            -0.0157     1.3066     0.0092 C.ar    
   2 N2             0.0021    -0.0041     0.0020 N.ar    
   3 C3             1.1590     2.0560     0.0020 C.ar    
   4 C4             2.3700     1.4248    -0.0129 C.ar    
   5 C5             2.3853     0.0171    -0.0205 C.ar    
   6 C6             1.1534    -0.6834    -0.0126 C.ar    
   7 C7             3.5916    -0.7008    -0.0353 C.ar    
   8 C8             3.5644    -2.0622    -0.0419 C.ar    
   9 C9             2.3546    -2.7530    -0.0346 C.ar    
  10 C10            1.1666    -2.0889    -0.0202 C.ar    
  11 C11            4.9177    -3.6929    -1.2932 C.2     
  12 N12            5.8514    -3.6281    -2.2674 N.pl3   
  13 C13            5.5087    -4.5919    -3.1859 C.2     
  14 N14            4.4121    -5.1783    -2.7343 N.2     
  15 N15            4.0748    -4.6430    -1.6132 N.2     
  16 N16            6.9808    -2.8335    -2.4746 N.2     
  17 C17            7.7246    -2.9988    -3.5460 C.2     
  18 C18            7.3989    -3.9792    -4.5071 C.2     
  19 C19            6.3062    -4.7683    -4.3325 C.2     
  20 C20            8.9205    -2.1440    -3.7470 C.ar    
  21 C21            9.2518    -1.1721    -2.8048 C.ar    
  22 C22           10.3656    -0.3801    -2.9967 C.ar    
  23 C23           11.1525    -0.5495    -4.1217 C.ar    
  24 C24           10.8283    -1.5126    -5.0601 C.ar    
  25 C25            9.7198    -2.3138    -4.8758 C.ar    
  26 C26            4.8600    -2.8318    -0.0578 C.3     
  27 C27            4.9418    -3.7186     1.1863 C.3     
  28 H28           -0.9662     1.8194     0.0165 H       
  29 H29            1.1119     3.1349     0.0079 H       
  30 H30            3.2904     1.9898    -0.0190 H       
  31 H31            4.5357    -0.1763    -0.0418 H       
  32 H32            2.3595    -3.8330    -0.0408 H       
  33 H33            0.2377    -2.6397    -0.0140 H       
  34 H34            8.0191    -4.1029    -5.3826 H       
  35 H35            6.0521    -5.5203    -5.0649 H       
  36 H36            8.6380    -1.0387    -1.9263 H       
  37 H37           10.6232     0.3737    -2.2674 H       
  38 H38           12.0230     0.0727    -4.2680 H       
  39 H39           11.4460    -1.6404    -5.9368 H       
  40 H40            9.4676    -3.0655    -5.6091 H       
  41 H41            5.6972    -2.1338    -0.0621 H       
  42 H42            4.9001    -3.0958     2.0798 H       
  43 H43            4.1046    -4.4166     1.1905 H       
  44 H44            5.8788    -4.2752     1.1748 H       
@<TRIPOS>BOND
   1    1    2 ar
   2    1    3 ar
   3    1   28 1
   4    2    6 ar
   5    3    4 ar
   6    3   29 1
   7    4    5 ar
   8    4   30 1
   9    5    6 ar
  10    5    7 ar
  11    6   10 ar
  12    7    8 ar
  13    7   31 1
  14    8    9 ar
  15    8   26 1
  16    9   10 ar
  17    9   32 1
  18   10   33 1
  19   11   12 1
  20   11   26 1
  21   11   15 2
  22   12   13 1
  23   12   16 1
  24   13   14 2
  25   13   19 1
  26   14   15 1
  27   16   17 2
  28   17   18 1
  29   17   20 1
  30   18   19 2
  31   18   34 1
  32   19   35 1
  33   20   21 ar
  34   20   25 ar
  35   21   22 ar
  36   21   36 1
  37   22   23 ar
  38   22   37 1
  39   23   24 ar
  40   23   38 1
  41   24   25 ar
  42   24   39 1
  43   25   40 1
  44   26   27 1
  45   26   41 1
  46   27   42 1
  47   27   43 1
  48   27   44 1

#	End of record

