#	Name: ASD00311358
#	Creating user name:	WinNT
#	Creation time:	15. 06. 2019 18:34

#	Modifying user name:	WinNT
#	Modification time:	15. 06. 2019 18:34

#	Program:	/corina/corina34_cracker 3.40 0067  02.08.2006

@<TRIPOS>MOLECULE
ASD00311358
  41   44    0    0    0
SMALL
NO_CHARGES


@<TRIPOS>ATOM
   1 C1            -0.0167     1.3779     0.0096 C.2     
   2 C2             0.0021    -0.0041     0.0020 C.2     
   3 C3             1.2589    -0.6766    -0.0131 C.2     
   4 C4             2.4315     0.0674    -0.0199 C.2     
   5 C5             2.3574     1.4753    -0.0117 C.2     
   6 N6             1.1649     2.0905     0.0022 N.am    
   7 C7            -1.3431    -0.5749     0.0118 C.2     
   8 C8            -2.3222     0.3256     0.0260 C.2     
   9 S9            -1.6794     1.9560     0.0358 S.3     
  10 O10            3.3823     2.1373    -0.0171 O.2     
  11 C11            3.7478    -0.6119    -0.0352 C.ar    
  12 C12            4.5913    -0.4737    -1.1343 C.ar    
  13 C13            5.8285    -1.1157    -1.1406 C.ar    
  14 C14            6.2138    -1.8930    -0.0453 C.ar    
  15 C15            5.3718    -2.0256     1.0404 C.ar    
  16 C16            4.1471    -1.3869     1.0545 C.ar    
  17 C17            6.7022    -0.9795    -2.2670 C.1     
  18 N18            7.3954    -0.8714    -3.1606 N.1     
  19 C19           -1.5955    -2.0354     0.0059 C.ar    
  20 C20           -1.2009    -2.8211     1.0940 C.ar    
  21 C21           -1.4411    -4.1847     1.0802 C.ar    
  22 C22           -2.0691    -4.7668    -0.0058 C.ar    
  23 C23           -2.4602    -3.9928    -1.0835 C.ar    
  24 C24           -2.2321    -2.6311    -1.0807 C.ar    
  25 C25           -2.3280    -6.2513    -0.0154 C.3     
  26 O26           -0.5835    -2.2482     2.1604 O.3     
  27 O27            1.3089    -2.0290    -0.0204 O.3     
  28 H28            1.1327     3.0600     0.0077 H       
  29 H29           -3.3748     0.0838     0.0342 H       
  30 H30            4.2882     0.1281    -1.9783 H       
  31 H31            7.1720    -2.3913    -0.0483 H       
  32 H32            5.6738    -2.6277     1.8845 H       
  33 H33            3.4952    -1.4909     1.9092 H       
  34 H34           -1.1375    -4.7944     1.9183 H       
  35 H35           -2.9497    -4.4547    -1.9281 H       
  36 H36           -2.5428    -2.0292    -1.9218 H       
  37 H37           -3.3038    -6.4528     0.4266 H       
  38 H38           -2.3119    -6.6164    -1.0423 H       
  39 H39           -1.5556    -6.7586     0.5627 H       
  40 H40           -1.1899    -1.9477     2.8512 H       
  41 H41            2.2062    -2.3894    -0.0307 H       
@<TRIPOS>BOND
   1    1    2 2
   2    1    6 1
   3    1    9 1
   4    2    3 1
   5    2    7 1
   6    3    4 2
   7    3   27 1
   8    4    5 1
   9    4   11 1
  10    5    6 am
  11    5   10 2
  12    6   28 1
  13    7    8 2
  14    7   19 1
  15    8    9 1
  16    8   29 1
  17   11   12 ar
  18   11   16 ar
  19   12   13 ar
  20   12   30 1
  21   13   14 ar
  22   13   17 1
  23   14   15 ar
  24   14   31 1
  25   15   16 ar
  26   15   32 1
  27   16   33 1
  28   17   18 3
  29   19   20 ar
  30   19   24 ar
  31   20   21 ar
  32   20   26 1
  33   21   22 ar
  34   21   34 1
  35   22   23 ar
  36   22   25 1
  37   23   24 ar
  38   23   35 1
  39   24   36 1
  40   25   37 1
  41   25   38 1
  42   25   39 1
  43   26   40 1
  44   27   41 1

#	End of record

