#	Name: ASD07300484
#	Creating user name:	WinNT
#	Creation time:	15. 06. 2019 21:09

#	Modifying user name:	WinNT
#	Modification time:	15. 06. 2019 21:09

#	Program:	/corina/corina34_cracker 3.40 0067  02.08.2006

@<TRIPOS>MOLECULE
ASD07300484
  48   50    0    0    0
SMALL
NO_CHARGES


@<TRIPOS>ATOM
   1 C1            -0.0169     1.3941     0.0097 C.ar    
   2 C2             0.0021    -0.0041     0.0020 C.ar    
   3 C3             1.2199    -0.6674    -0.0136 C.ar    
   4 C4             2.3808     0.0923    -0.0210 C.ar    
   5 C5             2.2878     1.4713    -0.0127 C.ar    
   6 N6             1.1161     2.0768     0.0026 N.ar    
   7 C7            -2.1139     0.6622     0.0347 C.2     
   8 N8            -1.3542     1.7734     0.0301 N.am    
   9 N9            -1.3234    -0.4279     0.0129 N.am    
  10 O10           -3.3304     0.6453     0.0517 O.2     
  11 C11           -1.7801    -1.8199     0.0099 C.3     
  12 O12           -2.2470    -2.1708     1.3141 O.3     
  13 C13           -3.5713    -1.7160     1.5992 C.3     
  14 C14           -3.9647    -2.1458     3.0140 C.3     
  15 Si15          -5.6912    -1.5528     3.3857 Si      
  16 C16           -6.8803    -2.2944     2.1581 C.3     
  17 C17           -6.1702    -2.0761     5.1083 C.3     
  18 C18           -5.7497     0.3052     3.2623 C.3     
  19 C19           -1.8317     3.0925     0.0437 C.ar    
  20 C20           -3.1983     3.3361     0.0638 C.ar    
  21 C21           -3.6677     4.6347     0.0777 C.ar    
  22 C22           -2.7741     5.6957     0.0715 C.ar    
  23 C23           -1.4084     5.4528     0.0509 C.ar    
  24 C24           -0.9378     4.1546     0.0429 C.ar    
  25 O25           -3.2368     6.9741     0.0851 O.3     
  26 H26            1.2635    -1.7465    -0.0195 H       
  27 H27            3.3475    -0.3890    -0.0328 H       
  28 H28            3.1908     2.0638    -0.0181 H       
  29 H29           -2.5909    -1.9348    -0.7094 H       
  30 H30           -0.9528    -2.4731    -0.2677 H       
  31 H31           -3.6055    -0.6289     1.5271 H       
  32 H32           -4.2670    -2.1499     0.8810 H       
  33 H33           -3.9305    -3.2328     3.0861 H       
  34 H34           -3.2690    -1.7119     3.7322 H       
  35 H35           -6.8461    -3.3815     2.2303 H       
  36 H36           -7.8905    -1.9474     2.3756 H       
  37 H37           -6.6001    -1.9882     1.1502 H       
  38 H38           -5.4745    -1.6422     5.8265 H       
  39 H39           -7.1804    -1.7292     5.3258 H       
  40 H40           -6.1360    -3.1632     5.1805 H       
  41 H41           -5.4695     0.6114     2.2544 H       
  42 H42           -6.7599     0.6522     3.4798 H       
  43 H43           -5.0540     0.7391     3.9805 H       
  44 H44           -3.8941     2.5102     0.0683 H       
  45 H45           -4.7308     4.8243     0.0929 H       
  46 H46           -0.7131     6.2792     0.0454 H       
  47 H47            0.1255     3.9656     0.0317 H       
  48 H48           -3.3586     7.3389     0.9724 H       
@<TRIPOS>BOND
   1    1    2 ar
   2    1    6 ar
   3    1    8 1
   4    2    3 ar
   5    2    9 1
   6    3    4 ar
   7    3   26 1
   8    4    5 ar
   9    4   27 1
  10    5    6 ar
  11    5   28 1
  12    7    8 am
  13    7    9 am
  14    7   10 2
  15    8   19 1
  16    9   11 1
  17   11   12 1
  18   11   29 1
  19   11   30 1
  20   12   13 1
  21   13   14 1
  22   13   31 1
  23   13   32 1
  24   14   15 1
  25   14   33 1
  26   14   34 1
  27   15   16 1
  28   15   17 1
  29   15   18 1
  30   16   35 1
  31   16   36 1
  32   16   37 1
  33   17   38 1
  34   17   39 1
  35   17   40 1
  36   18   41 1
  37   18   42 1
  38   18   43 1
  39   19   20 ar
  40   19   24 ar
  41   20   21 ar
  42   20   44 1
  43   21   22 ar
  44   21   45 1
  45   22   23 ar
  46   22   25 1
  47   23   24 ar
  48   23   46 1
  49   24   47 1
  50   25   48 1

#	End of record

