#	Name: ASD01028585
#	Creating user name:	WinNT
#	Creation time:	15. 06. 2019 18:57

#	Modifying user name:	WinNT
#	Modification time:	15. 06. 2019 18:57

#	Program:	/corina/corina34_cracker 3.40 0067  02.08.2006

@<TRIPOS>MOLECULE
ASD01028585
  73   78    0    0    0
SMALL
NO_CHARGES


@<TRIPOS>ATOM
   1 N1            -0.0169     1.3921     0.0097 N.2     
   2 N2             0.0021    -0.0041     0.0020 N.pl3   
   3 C3             1.1071     2.0741     0.0026 C.2     
   4 C4             2.3532     1.4124    -0.0128 C.2     
   5 C5             2.4037     0.0542    -0.0206 C.2     
   6 C6             1.2008    -0.6771    -0.0130 C.2     
   7 N7             0.9145    -1.9687    -0.0176 N.2     
   8 N8            -0.3638    -2.1208    -0.0065 N.2     
   9 C9            -0.9586    -0.9539     0.0061 C.2     
  10 C10           -2.4463    -0.7141     0.0218 C.3     
  11 N11           -2.9153    -0.6451     1.4080 N.pl3   
  12 C12           -4.2594    -0.4297     1.6756 C.ar    
  13 C13           -5.1757    -0.2771     0.6490 C.ar    
  14 C14           -6.5154    -0.0624     0.9466 C.ar    
  15 N15           -6.9460     0.0011     2.1850 N.ar    
  16 C16           -6.1165    -0.1376     3.2238 C.ar    
  17 C17           -4.7374    -0.3650     3.0085 C.ar    
  18 C18           -6.5917    -0.0679     4.5483 C.ar    
  19 C19           -5.6936    -0.2180     5.5657 C.ar    
  20 C20           -4.3472    -0.4336     5.2797 C.ar    
  21 N21           -3.9103    -0.5037     4.0452 N.ar    
  22 C22           -6.1585    -0.1499     6.9976 C.3     
  23 C23            1.0647     3.5571     0.0105 C.ar    
  24 C24           -0.1602     4.2210     0.0253 C.ar    
  25 C25            0.9854     6.3277     0.0257 C.ar    
  26 C26            2.2053     5.6718     0.0168 C.ar    
  27 C27            2.2496     4.2900     0.0089 C.ar    
  28 C28           -0.1950     5.6031     0.0331 C.ar    
  29 F29           -1.3821     6.2479     0.0474 F       
  30 F30            3.3537     6.3835     0.0092 F       
  31 C31           -5.2590    -1.0304     7.8681 C.3     
  32 C32           -6.0873     1.2978     7.4886 C.3     
  33 C33           -6.5931     1.3685     8.9328 C.3     
  34 C34           -5.7554    -0.9861     9.3167 C.3     
  35 O35           -7.5068    -0.6156     7.0830 O.3     
  36 N36           -5.8279     0.4162     9.7491 N.am    
  37 O37           -4.5061    -0.0620    11.6113 O.3     
  38 C38           -3.8599     0.4447    12.8088 C.3     
  39 C39           -4.9160     1.0250    13.7515 C.3     
  40 C40           -3.1209    -0.6961    13.5111 C.3     
  41 C41           -2.8618     1.5392    12.4255 C.3     
  42 C42           -5.2039     0.8214    10.8728 C.2     
  43 O43           -5.2711     1.9841    11.2196 O.2     
  44 H44            3.2683     1.9860    -0.0188 H       
  45 H45            3.3547    -0.4576    -0.0328 H       
  46 H46           -2.6682     0.2256    -0.4841 H       
  47 H47           -2.9515    -1.5317    -0.4925 H       
  48 H48           -2.2860    -0.7501     2.1386 H       
  49 H49           -4.8499    -0.3244    -0.3796 H       
  50 H50           -7.2213     0.0557     0.1378 H       
  51 H51           -7.6386     0.1002     4.7533 H       
  52 H52           -3.6474    -0.5503     6.0940 H       
  53 H53           -1.0811     3.6569     0.0303 H       
  54 H54            0.9546     7.4072     0.0322 H       
  55 H55            3.2013     3.7794     0.0020 H       
  56 H56           -5.2920    -2.0571     7.5034 H       
  57 H57           -4.2346    -0.6606     7.8231 H       
  58 H58           -5.0551     1.6457     7.4472 H       
  59 H59           -6.7099     1.9283     6.8537 H       
  60 H60           -6.4524     2.3775     9.3203 H       
  61 H61           -7.6511     1.1077     8.9626 H       
  62 H62           -6.7450    -1.4389     9.3778 H       
  63 H63           -5.0619    -1.5307     9.9574 H       
  64 H64           -8.1341    -0.1032     6.5546 H       
  65 H65           -5.6270     0.2453    14.0246 H       
  66 H66           -4.4309     1.4054    14.6504 H       
  67 H67           -5.4424     1.8378    13.2511 H       
  68 H68           -2.3685    -1.1095    12.8395 H       
  69 H69           -2.6358    -0.3157    14.4101 H       
  70 H70           -3.8320    -1.4758    13.7842 H       
  71 H71           -3.3883     2.3519    11.9251 H       
  72 H72           -2.3767     1.9196    13.3244 H       
  73 H73           -2.1094     1.1257    11.7538 H       
@<TRIPOS>BOND
   1    1    2 1
   2    1    3 2
   3    2    6 1
   4    2    9 1
   5    3    4 1
   6    3   23 1
   7    4    5 2
   8    4   44 1
   9    5    6 1
  10    5   45 1
  11    6    7 2
  12    7    8 1
  13    8    9 2
  14    9   10 1
  15   10   11 1
  16   10   46 1
  17   10   47 1
  18   11   12 1
  19   11   48 1
  20   12   13 ar
  21   12   17 ar
  22   13   14 ar
  23   13   49 1
  24   14   15 ar
  25   14   50 1
  26   15   16 ar
  27   16   17 ar
  28   16   18 ar
  29   17   21 ar
  30   18   19 ar
  31   18   51 1
  32   19   20 ar
  33   19   22 1
  34   20   21 ar
  35   20   52 1
  36   22   31 1
  37   22   32 1
  38   22   35 1
  39   23   24 ar
  40   23   27 ar
  41   24   28 ar
  42   24   53 1
  43   25   26 ar
  44   25   28 ar
  45   25   54 1
  46   26   27 ar
  47   26   30 1
  48   27   55 1
  49   28   29 1
  50   31   34 1
  51   31   56 1
  52   31   57 1
  53   32   33 1
  54   32   58 1
  55   32   59 1
  56   33   36 1
  57   33   60 1
  58   33   61 1
  59   34   36 1
  60   34   62 1
  61   34   63 1
  62   35   64 1
  63   36   42 am
  64   37   38 1
  65   37   42 1
  66   38   39 1
  67   38   40 1
  68   38   41 1
  69   39   65 1
  70   39   66 1
  71   39   67 1
  72   40   68 1
  73   40   69 1
  74   40   70 1
  75   41   71 1
  76   41   72 1
  77   41   73 1
  78   42   43 2

#	End of record

