#	Name: ASD03090086
#	Creating user name:	WinNT
#	Creation time:	15. 06. 2019 20:28

#	Modifying user name:	WinNT
#	Modification time:	15. 06. 2019 20:28

#	Program:	/corina/corina34_cracker 3.40 0067  02.08.2006

@<TRIPOS>MOLECULE
ASD03090086
  40   42    0    0    0
SMALL
NO_CHARGES


@<TRIPOS>ATOM
   1 C1            -0.0179     1.4706     0.0101 C.2     
   2 C2             0.0021    -0.0041     0.0020 C.ar    
   3 C3             1.2216    -0.6880    -0.0133 C.ar    
   4 C4             1.2372    -2.0588    -0.0203 C.ar    
   5 C5             0.0396    -2.7703    -0.0122 C.ar    
   6 C6            -1.1768    -2.0917     0.0030 C.ar    
   7 C7            -1.1984    -0.7210     0.0155 C.ar    
   8 O8             1.0268     2.0929     0.0035 O.2     
   9 N9            -1.1941     2.1285     0.0193 N.am    
  10 S10            0.0635    -4.5322    -0.0219 S.3     
  11 C11           -1.6982    -4.9642    -0.0067 C.3     
  12 F12           -2.3195    -4.4287    -1.1400 F       
  13 F13           -1.8370    -6.3563    -0.0128 F       
  14 F14           -2.2968    -4.4409     1.1444 F       
  15 C15           -1.2140     3.5934     0.0273 C.3     
  16 C16           -2.6415     4.0763     0.0367 C.ar    
  17 C17           -3.2894     4.2910     1.2377 C.ar    
  18 C18           -4.6043     4.7358     1.2456 C.ar    
  19 C19           -5.2644     4.9638     0.0453 C.ar    
  20 C20           -4.6114     4.7474    -1.1521 C.ar    
  21 C21           -3.2995     4.3096    -1.1566 C.ar    
  22 N22           -5.2647     4.9541     2.4627 N.pl3   
  23 N23           -4.7222     4.7657     3.7404 N.2     
  24 C24           -5.6385     5.0718     4.6233 C.2     
  25 C25           -6.7933     5.4648     3.9378 C.2     
  26 C26           -6.5363     5.3895     2.6114 C.2     
  27 H27            2.1504    -0.1369    -0.0199 H       
  28 H28            2.1788    -2.5876    -0.0325 H       
  29 H29           -2.1037    -2.6459     0.0089 H       
  30 H30           -2.1417    -0.1954     0.0315 H       
  31 H31           -2.0275     1.6321     0.0205 H       
  32 H32           -0.7009     3.9588     0.9169 H       
  33 H33           -0.7094     3.9685    -0.8630 H       
  34 H34           -2.7736     4.1125     2.1697 H       
  35 H35           -6.2875     5.3096     0.0483 H       
  36 H36           -5.1242     4.9245    -2.0859 H       
  37 H37           -2.7894     4.1453    -2.0943 H       
  38 H38           -5.5233     5.0282     5.6962 H       
  39 H39           -7.7239     5.7774     4.3879 H       
  40 H40           -7.2242     5.6310     1.8145 H       
@<TRIPOS>BOND
   1    1    2 1
   2    1    8 2
   3    1    9 am
   4    2    3 ar
   5    2    7 ar
   6    3    4 ar
   7    3   27 1
   8    4    5 ar
   9    4   28 1
  10    5    6 ar
  11    5   10 1
  12    6    7 ar
  13    6   29 1
  14    7   30 1
  15    9   15 1
  16    9   31 1
  17   10   11 1
  18   11   12 1
  19   11   13 1
  20   11   14 1
  21   15   16 1
  22   15   32 1
  23   15   33 1
  24   16   17 ar
  25   16   21 ar
  26   17   18 ar
  27   17   34 1
  28   18   19 ar
  29   18   22 1
  30   19   20 ar
  31   19   35 1
  32   20   21 ar
  33   20   36 1
  34   21   37 1
  35   22   23 1
  36   22   26 1
  37   23   24 2
  38   24   25 1
  39   24   38 1
  40   25   26 2
  41   25   39 1
  42   26   40 1

#	End of record

