#	Name: ASD04880974
#	Creating user name:	WinNT
#	Creation time:	15. 06. 2019 20:53

#	Modifying user name:	WinNT
#	Modification time:	15. 06. 2019 20:53

#	Program:	/corina/corina34_cracker 3.40 0067  02.08.2006

@<TRIPOS>MOLECULE
ASD04880974
  76   81    0    0    0
SMALL
NO_CHARGES


@<TRIPOS>ATOM
   1 C1            -0.4545     2.3446     3.1221 C.ar    
   2 C2            -0.7165     1.3661     2.1804 C.ar    
   3 C3             0.2303     1.0527     1.2228 C.ar    
   4 C4             1.4415     1.7164     1.2037 C.ar    
   5 C5             1.7078     2.6995     2.1479 C.ar    
   6 C6             0.7542     3.0119     3.1088 C.ar    
   7 N7             2.9318     3.3723     2.1318 N.3     
   8 C8             3.0841     4.1591     0.9000 C.3     
   9 C9             4.3983     4.9414     0.9567 C.3     
  10 N10            5.5173     4.0030     1.1206 N.3     
  11 C11            5.3650     3.2162     2.3524 C.3     
  12 C12            4.0508     2.4339     2.2956 C.3     
  13 C13            6.7375     4.6737     1.1045 C.ar    
  14 C14            7.1748     5.2992    -0.0667 C.ar    
  15 C15            8.3856     5.9647    -0.0824 C.ar    
  16 C16            9.1698     6.0102     1.0741 C.ar    
  17 C17            8.7267     5.3828     2.2415 C.ar    
  18 C18            7.5162     4.7252     2.2545 C.ar    
  19 C19            1.0385     4.0783     4.1349 C.3     
  20 N20            6.3862     5.2510    -1.2239 N.am    
  21 C21            6.4796     6.2310    -2.1444 C.2     
  22 C22            5.5844     6.2299    -3.3155 C.2     
  23 O23            7.3027     7.1162    -2.0089 O.2     
  24 C24           10.4635     6.7191     1.0620 C.2     
  25 O25           10.8485     7.2644     0.0456 O.2     
  26 N26           11.2187     6.7624     2.1775 N.am    
  27 C27           12.5034     7.4664     2.1654 C.3     
  28 C28           13.1537     7.3647     3.5466 C.3     
  29 C29           14.4954     8.0999     3.5341 C.3     
  30 C30           15.1358     7.9998     4.8945 C.2     
  31 C31           16.0057     6.9915     5.3223 C.2     
  32 N32           16.3511     7.2469     6.5582 N.2     
  33 N33           15.7109     8.4276     6.9564 N.pl3   
  34 C34           14.9756     8.8726     5.9161 C.2     
  35 C35            5.5652     7.1488    -4.3194 C.2     
  36 O36            4.6037     6.7712    -5.1771 O.3     
  37 C37            4.0444     5.6456    -4.7110 C.2     
  38 N38            4.6257     5.3070    -3.5993 N.2     
  39 C39            2.9225     4.8892    -5.3745 C.3     
  40 C40            1.6008     5.6297    -5.5883 C.3     
  41 C41            2.5100     5.3275    -6.7811 C.3     
  42 H42           -1.1980     2.5900     3.8660 H       
  43 H43           -1.6626     0.8454     2.1933 H       
  44 H44            0.0228     0.2878     0.4891 H       
  45 H45            2.1808     1.4708     0.4556 H       
  46 H46            3.0963     3.4895     0.0400 H       
  47 H47            2.2503     4.8550     0.8076 H       
  48 H48            4.5273     5.5032     0.0316 H       
  49 H49            4.3751     5.6306     1.8009 H       
  50 H50            6.1988     2.5202     2.4448 H       
  51 H51            5.3528     3.8858     3.2124 H       
  52 H52            3.9217     1.8721     3.2207 H       
  53 H53            4.0740     1.7447     1.4515 H       
  54 H54            8.7257     6.4484    -0.9862 H       
  55 H55            9.3316     5.4173     3.1355 H       
  56 H56            7.1738     4.2448     3.1591 H       
  57 H57            1.4252     3.6151     5.0427 H       
  58 H58            1.7775     4.7753     3.7395 H       
  59 H59            0.1186     4.6159     4.3648 H       
  60 H60            5.7730     4.5123    -1.3625 H       
  61 H61           10.9116     6.3274     2.9883 H       
  62 H62           13.1587     7.0139     1.4211 H       
  63 H63           12.3407     8.5151     1.9167 H       
  64 H64           12.4984     7.8172     4.2909 H       
  65 H65           13.3163     6.3160     3.7953 H       
  66 H66           15.1507     7.6475     2.7898 H       
  67 H67           14.3327     9.1487     3.2854 H       
  68 H68           16.3351     6.1477     4.7343 H       
  69 H69           15.7860     8.8523     7.8253 H       
  70 H70           14.3663     9.7642     5.9022 H       
  71 H71            6.2018     8.0165    -4.4088 H       
  72 H72            2.8716     3.8253    -5.1432 H       
  73 H73            0.6804     5.0528    -5.4981 H       
  74 H74            1.5427     6.6640    -5.2491 H       
  75 H75            3.0501     6.1628    -7.2267 H       
  76 H76            2.1878     4.5517    -7.4757 H       
@<TRIPOS>BOND
   1    1    2 ar
   2    1    6 ar
   3    1   42 1
   4    2    3 ar
   5    2   43 1
   6    3    4 ar
   7    3   44 1
   8    4    5 ar
   9    4   45 1
  10    5    6 ar
  11    5    7 1
  12    6   19 1
  13    7    8 1
  14    7   12 1
  15    8    9 1
  16    8   46 1
  17    8   47 1
  18    9   10 1
  19    9   48 1
  20    9   49 1
  21   10   11 1
  22   10   13 1
  23   11   12 1
  24   11   50 1
  25   11   51 1
  26   12   52 1
  27   12   53 1
  28   13   14 ar
  29   13   18 ar
  30   14   15 ar
  31   14   20 1
  32   15   16 ar
  33   15   54 1
  34   16   17 ar
  35   16   24 1
  36   17   18 ar
  37   17   55 1
  38   18   56 1
  39   19   57 1
  40   19   58 1
  41   19   59 1
  42   20   21 am
  43   20   60 1
  44   21   22 1
  45   21   23 2
  46   22   35 2
  47   22   38 1
  48   24   25 2
  49   24   26 am
  50   26   27 1
  51   26   61 1
  52   27   28 1
  53   27   62 1
  54   27   63 1
  55   28   29 1
  56   28   64 1
  57   28   65 1
  58   29   30 1
  59   29   66 1
  60   29   67 1
  61   30   31 1
  62   30   34 2
  63   31   32 2
  64   31   68 1
  65   32   33 1
  66   33   34 1
  67   33   69 1
  68   34   70 1
  69   35   36 1
  70   35   71 1
  71   36   37 1
  72   37   38 2
  73   37   39 1
  74   39   40 1
  75   39   41 1
  76   39   72 1
  77   40   41 1
  78   40   73 1
  79   40   74 1
  80   41   75 1
  81   41   76 1

#	End of record

