#	Name: ASD02508342
#	Creating user name:	WinNT
#	Creation time:	15. 06. 2019 20:24

#	Modifying user name:	WinNT
#	Modification time:	15. 06. 2019 20:24

#	Program:	/corina/corina34_cracker 3.40 0067  02.08.2006

@<TRIPOS>MOLECULE
ASD02508342
  55   58    0    0    0
SMALL
NO_CHARGES


@<TRIPOS>ATOM
   1 C1            -0.0167     1.3786     0.0096 C.ar    
   2 C2             0.0021    -0.0041     0.0020 C.ar    
   3 C3             1.2105    -0.6755    -0.0132 C.ar    
   4 C4             2.3972     0.0318    -0.0208 C.ar    
   5 C5             2.3895     1.4179    -0.0132 C.ar    
   6 C6             1.1648     2.0888     0.0022 C.ar    
   7 C7             3.8336    -0.4409    -0.0371 C.3     
   8 C8             4.6654     0.8521    -0.0381 C.3     
   9 N9             3.6839     1.9401    -0.0228 N.am    
  10 S10            4.0562     3.5537    -0.0172 S.o2    
  11 O11            2.9353     4.1698     0.6019 O.2     
  12 O12            5.3459     3.6138     0.5763 O.2     
  13 C13            4.1416     4.0046    -1.7722 C.3     
  14 C14            5.5484     0.9162     1.2098 C.3     
  15 S15           -1.5104    -0.9079     0.0122 S.o2    
  16 C16           -1.9749    -1.1665    -1.6677 C.ar    
  17 O17           -1.2084    -2.1894     0.5468 O.2     
  18 O18           -2.4904    -0.0440     0.5711 O.2     
  19 C19           -1.5439    -2.2952    -2.3401 C.ar    
  20 C20           -2.7759    -0.2441    -2.3150 C.ar    
  21 C21           -3.1413    -0.4456    -3.6319 C.ar    
  22 C22           -2.7103    -1.5712    -4.3168 C.ar    
  23 C23           -1.9058    -2.5008    -3.6543 C.ar    
  24 C24           -3.9931     0.3871    -4.5635 C.3     
  25 C25           -4.0036    -0.4001    -5.8841 C.3     
  26 N26           -3.1858    -1.5890    -5.6289 N.am    
  27 S27           -2.8715    -2.7798    -6.7359 S.o2    
  28 C28           -1.3548    -2.2350    -7.5686 C.3     
  29 O29           -2.6197    -3.9344    -5.9466 O.2     
  30 O30           -3.9761    -2.7291    -7.6283 O.2     
  31 C31           -5.4328    -0.8072    -6.2481 C.3     
  32 H32           -0.9603     1.9039     0.0169 H       
  33 H33            1.2269    -1.7553    -0.0188 H       
  34 H34            1.1432     3.1685     0.0082 H       
  35 H35            4.0497    -1.0315     0.8532 H       
  36 H36            4.0326    -1.0219    -0.9376 H       
  37 H37            5.2773     0.9074    -0.9385 H       
  38 H38            3.1785     3.8108    -2.2444 H       
  39 H39            4.3847     5.0632    -1.8640 H       
  40 H40            4.9128     3.4108    -2.2628 H       
  41 H41            6.2398     0.0736     1.2093 H       
  42 H42            6.1123     1.8490     1.2083 H       
  43 H43            4.9220     0.8718     2.1007 H       
  44 H44           -0.9212    -3.0182    -1.8341 H       
  45 H45           -3.1170     0.6358    -1.7898 H       
  46 H46           -1.5625    -3.3825    -4.1750 H       
  47 H47           -5.0050     0.4830    -4.1699 H       
  48 H48           -3.5463     1.3704    -4.7104 H       
  49 H49           -3.5643     0.1966    -6.6835 H       
  50 H50           -0.5531    -2.1380    -6.8366 H       
  51 H51           -1.0711    -2.9685    -8.3233 H       
  52 H52           -1.5290    -1.2709    -8.0465 H       
  53 H53           -6.0410     0.0867    -6.3866 H       
  54 H54           -5.4217    -1.3858    -7.1718 H       
  55 H55           -5.8539    -1.4123    -5.4453 H       
@<TRIPOS>BOND
   1    1    2 ar
   2    1    6 ar
   3    1   32 1
   4    2    3 ar
   5    2   15 1
   6    3    4 ar
   7    3   33 1
   8    4    5 ar
   9    4    7 1
  10    5    6 ar
  11    5    9 1
  12    6   34 1
  13    7    8 1
  14    7   35 1
  15    7   36 1
  16    8    9 1
  17    8   14 1
  18    8   37 1
  19    9   10 am
  20   10   11 2
  21   10   12 2
  22   10   13 1
  23   13   38 1
  24   13   39 1
  25   13   40 1
  26   14   41 1
  27   14   42 1
  28   14   43 1
  29   15   16 1
  30   15   17 2
  31   15   18 2
  32   16   19 ar
  33   16   20 ar
  34   19   23 ar
  35   19   44 1
  36   20   21 ar
  37   20   45 1
  38   21   22 ar
  39   21   24 1
  40   22   23 ar
  41   22   26 1
  42   23   46 1
  43   24   25 1
  44   24   47 1
  45   24   48 1
  46   25   26 1
  47   25   31 1
  48   25   49 1
  49   26   27 am
  50   27   28 1
  51   27   29 2
  52   27   30 2
  53   28   50 1
  54   28   51 1
  55   28   52 1
  56   31   53 1
  57   31   54 1
  58   31   55 1

#	End of record

