#	Name: ASD01150234
#	Creating user name:	WinNT
#	Creation time:	15. 06. 2019 19:03

#	Modifying user name:	WinNT
#	Modification time:	15. 06. 2019 19:03

#	Program:	/corina/corina34_cracker 3.40 0067  02.08.2006

@<TRIPOS>MOLECULE
ASD01150234
  52   55    0    0    0
SMALL
NO_CHARGES


@<TRIPOS>ATOM
   1 C1             0.0537     1.7225     0.9355 C.ar    
   2 C2             0.2060     0.3315     0.9487 C.ar    
   3 C3            -0.8750    -0.4910     0.8899 C.ar    
   4 C4            -2.1695     0.0534     0.8145 C.ar    
   5 C5            -2.3286     1.4606     0.8009 C.ar    
   6 C6            -1.2023     2.2888     0.8680 C.ar    
   7 N7            -3.2444    -0.7403     0.7554 N.ar    
   8 C8            -4.4601    -0.2536     0.6843 C.ar    
   9 C9            -4.7037     1.1146     0.6656 C.ar    
  10 C10           -3.6375     2.0022     0.7248 C.ar    
  11 N11            1.1816     2.5435     0.9969 N.3     
  12 C12           -3.8594     3.4660     0.7069 C.ar    
  13 C13           -6.1167     1.6318     0.5827 C.3     
  14 C14           -6.6489     1.4360    -0.8384 C.3     
  15 O15           -6.9414     0.9144     1.5032 O.3     
  16 C16           -5.6267    -1.2054     0.6205 C.3     
  17 C17           -3.5245     4.2383     1.8194 C.ar    
  18 C18           -3.7326     5.6015     1.7977 C.ar    
  19 C19           -4.2740     6.2043     0.6732 C.ar    
  20 C20           -4.6083     5.4414    -0.4345 C.ar    
  21 C21           -4.3987     4.0783    -0.4248 C.ar    
  22 F22           -4.4768     7.5399     0.6570 F       
  23 C23            2.4112     1.7440     1.0694 C.3     
  24 C24            3.6279     2.6687     0.9886 C.3     
  25 C25            3.5793     3.6705     2.1456 C.3     
  26 C26            2.2672     4.4566     2.0749 C.3     
  27 C27            1.0899     3.4801     2.1242 C.3     
  28 H28            1.1966    -0.0948     1.0061 H       
  29 H29           -0.7396    -1.5624     0.9008 H       
  30 H30           -1.3151     3.3628     0.8581 H       
  31 H31           -6.1306     2.6926     0.8329 H       
  32 H32           -6.3955     0.4346    -1.1865 H       
  33 H33           -7.7320     1.5582    -0.8408 H       
  34 H34           -6.1983     2.1756    -1.5002 H       
  35 H35           -7.1355     0.0066     1.2324 H       
  36 H36           -6.0280    -1.3561     1.6227 H       
  37 H37           -6.4017    -0.7877    -0.0221 H       
  38 H38           -5.2943    -2.1609     0.2148 H       
  39 H39           -3.1033     3.7693     2.6964 H       
  40 H40           -3.4737     6.2002     2.6584 H       
  41 H41           -5.0302     5.9158    -1.3083 H       
  42 H42           -4.6592     3.4848    -1.2886 H       
  43 H43            2.4332     1.1963     2.0116 H       
  44 H44            2.4353     1.0386     0.2388 H       
  45 H45            4.5403     2.0764     1.0581 H       
  46 H46            3.6139     3.2066     0.0407 H       
  47 H47            3.6326     3.1351     3.0935 H       
  48 H48            4.4209     4.3587     2.0671 H       
  49 H49            2.2074     5.1417     2.9205 H       
  50 H50            2.2318     5.0226     1.1440 H       
  51 H51            0.1543     4.0356     2.0597 H       
  52 H52            1.1181     2.9242     3.0614 H       
@<TRIPOS>BOND
   1    1    2 ar
   2    1   11 1
   3    1    6 ar
   4    2    3 ar
   5    2   28 1
   6    3    4 ar
   7    3   29 1
   8    4    5 ar
   9    4    7 ar
  10    5    6 ar
  11    5   10 ar
  12    6   30 1
  13    7    8 ar
  14    8    9 ar
  15    8   16 1
  16    9   10 ar
  17    9   13 1
  18   10   12 1
  19   11   23 1
  20   11   27 1
  21   12   17 ar
  22   12   21 ar
  23   13   14 1
  24   13   15 1
  25   13   31 1
  26   14   32 1
  27   14   33 1
  28   14   34 1
  29   15   35 1
  30   16   36 1
  31   16   37 1
  32   16   38 1
  33   17   18 ar
  34   17   39 1
  35   18   19 ar
  36   18   40 1
  37   19   20 ar
  38   19   22 1
  39   20   21 ar
  40   20   41 1
  41   21   42 1
  42   23   24 1
  43   23   43 1
  44   23   44 1
  45   24   25 1
  46   24   45 1
  47   24   46 1
  48   25   26 1
  49   25   47 1
  50   25   48 1
  51   26   27 1
  52   26   49 1
  53   26   50 1
  54   27   51 1
  55   27   52 1

#	End of record

