#	Name: ASD01030016
#	Creating user name:	WinNT
#	Creation time:	15. 06. 2019 18:58

#	Modifying user name:	WinNT
#	Modification time:	15. 06. 2019 18:58

#	Program:	/corina/corina34_cracker 3.40 0067  02.08.2006

@<TRIPOS>MOLECULE
ASD01030016
  51   50    0    0    0
SMALL
NO_CHARGES


@<TRIPOS>ATOM
   1 C1             0.1991     1.5291    -0.4286 C.3     
   2 P2            -0.3847    -0.1370    -0.8831 P.3     
   3 O3            -0.7480    -0.9610     0.4514 O.3     
   4 O4            -1.6951    -0.0121    -1.8102 O.3     
   5 O5             0.6799    -0.8469    -1.6268 O.2     
   6 P6             1.6829     1.3877     0.6211 P.3     
   7 O7             2.8410     0.6154    -0.1879 O.3     
   8 O8             2.1985     2.8591     1.0225 O.3     
   9 O9             1.3489     0.6302     1.8479 O.2     
  10 C10           -1.1020    -2.3454     0.4392 C.3     
  11 C11           -0.0221    -3.1543     1.1607 C.3     
  12 C12           -2.4427    -2.5353     1.1515 C.3     
  13 C13           -2.3156    -1.1368    -2.4363 C.3     
  14 C14           -3.7979    -1.1768    -2.0593 C.3     
  15 C15           -2.1787    -1.0148    -3.9552 C.3     
  16 C16            4.0861     0.2398     0.4042 C.3     
  17 C17            4.1746    -1.2857     0.4812 C.3     
  18 C18            5.2383     0.7751    -0.4482 C.3     
  19 C19            3.2679     3.0848     1.9431 C.3     
  20 C20            4.3215     3.9822     1.2907 C.3     
  21 C21            2.7238     3.7676     3.1995 C.3     
  22 H22            0.4451     2.0870    -1.3321 H       
  23 H23           -0.5849     2.0520     0.1191 H       
  24 H24           -1.1861    -2.6898    -0.5915 H       
  25 H25            0.0620    -2.8099     2.1914 H       
  26 H26           -0.2921    -4.2103     1.1514 H       
  27 H27            0.9330    -3.0190     0.6533 H       
  28 H28           -3.1897    -1.8826     0.6998 H       
  29 H29           -2.7613    -3.5733     1.0554 H       
  30 H30           -2.3322    -2.2854     2.2066 H       
  31 H31           -1.8304    -2.0532    -2.1002 H       
  32 H32           -4.2492    -2.0864    -2.4558 H       
  33 H33           -3.8972    -1.1652    -0.9739 H       
  34 H34           -4.3033    -0.3074    -2.4798 H       
  35 H35           -1.1227    -0.9863    -4.2237 H       
  36 H36           -2.6520    -1.8727    -4.4328 H       
  37 H37           -2.6639    -0.0984    -4.2913 H       
  38 H38            4.1519     0.6586     1.4084 H       
  39 H39            4.1088    -1.7046    -0.5230 H       
  40 H40            5.1243    -1.5723     0.9328 H       
  41 H41            3.3537    -1.6671     1.0884 H       
  42 H42            5.1164     1.8489    -0.5907 H       
  43 H43            6.1846     0.5807     0.0566 H       
  44 H44            5.2348     0.2772    -1.4178 H       
  45 H45            3.7207     2.1313     2.2148 H       
  46 H46            3.8550     4.9113     0.9631 H       
  47 H47            5.1067     4.2050     2.0132 H       
  48 H48            4.7534     3.4697     0.4311 H       
  49 H49            1.9732     3.1282     3.6643 H       
  50 H50            3.5395     3.9397     3.9017 H       
  51 H51            2.2710     4.7211     2.9278 H       
@<TRIPOS>BOND
   1    1    2 1
   2    1    6 1
   3    1   22 1
   4    1   23 1
   5    2    3 1
   6    2    4 1
   7    2    5 2
   8    3   10 1
   9    4   13 1
  10    6    7 1
  11    6    8 1
  12    6    9 2
  13    7   16 1
  14    8   19 1
  15   10   11 1
  16   10   12 1
  17   10   24 1
  18   11   25 1
  19   11   26 1
  20   11   27 1
  21   12   28 1
  22   12   29 1
  23   12   30 1
  24   13   14 1
  25   13   15 1
  26   13   31 1
  27   14   32 1
  28   14   33 1
  29   14   34 1
  30   15   35 1
  31   15   36 1
  32   15   37 1
  33   16   17 1
  34   16   18 1
  35   16   38 1
  36   17   39 1
  37   17   40 1
  38   17   41 1
  39   18   42 1
  40   18   43 1
  41   18   44 1
  42   19   20 1
  43   19   21 1
  44   19   45 1
  45   20   46 1
  46   20   47 1
  47   20   48 1
  48   21   49 1
  49   21   50 1
  50   21   51 1

#	End of record

