#	Name: ASD01916667
#	Creating user name:	WinNT
#	Creation time:	15. 06. 2019 20:07

#	Modifying user name:	WinNT
#	Modification time:	15. 06. 2019 20:07

#	Program:	/corina/corina34_cracker 3.40 0067  02.08.2006

@<TRIPOS>MOLECULE
ASD01916667
  29   30    0    0    0
SMALL
NO_CHARGES


@<TRIPOS>ATOM
   1 O1            -0.0144     1.2087     0.0087 O.3     
   2 N2             0.0021    -0.0041     0.0020 N.2     
   3 C3             1.2366    -0.4366    -0.0121 C.2     
   4 N4             2.0404     0.6510    -0.0139 N.2     
   5 C5             1.2350     1.6837    -0.0007 C.2     
   6 C6             1.6729    -1.8539    -0.0234 C.ar    
   7 C7             0.7238    -2.8811    -0.0199 C.ar    
   8 C8             1.1407    -4.2028    -0.0311 C.ar    
   9 C9             2.4895    -4.5030    -0.0451 C.ar    
  10 C10            3.4308    -3.4888    -0.0486 C.ar    
  11 C11            3.0298    -2.1682    -0.0434 C.ar    
  12 O12           -0.6013    -2.5847    -0.0052 O.3     
  13 C13           -1.5124    -3.6855    -0.0025 C.3     
  14 C14            1.6407     3.1351     0.0025 C.3     
  15 C15            1.7639     3.6334    -1.4389 C.3     
  16 C16            2.1602     5.0510    -1.4358 C.1     
  17 C17            2.4762     6.1817    -1.4333 C.1     
  18 H18            0.4108    -4.9988    -0.0284 H       
  19 H19            2.8105    -5.5342    -0.0531 H       
  20 H20            4.4831    -3.7314    -0.0593 H       
  21 H21            3.7673    -1.3793    -0.0503 H       
  22 H22           -1.3395    -4.2981     0.8823 H       
  23 H23           -2.5357    -3.3102     0.0097 H       
  24 H24           -1.3570    -4.2880    -0.8975 H       
  25 H25            0.8864     3.7221     0.5266 H       
  26 H26            2.6006     3.2430     0.5075 H       
  27 H27            2.5182     3.0464    -1.9629 H       
  28 H28            0.8040     3.5255    -1.9439 H       
  29 H29            2.7589     7.1929    -1.4311 H       
@<TRIPOS>BOND
   1    1    2 1
   2    1    5 1
   3    2    3 2
   4    3    4 1
   5    3    6 1
   6    4    5 2
   7    5   14 1
   8    6    7 ar
   9    6   11 ar
  10    7    8 ar
  11    7   12 1
  12    8    9 ar
  13    8   18 1
  14    9   10 ar
  15    9   19 1
  16   10   11 ar
  17   10   20 1
  18   11   21 1
  19   12   13 1
  20   13   22 1
  21   13   23 1
  22   13   24 1
  23   14   15 1
  24   14   25 1
  25   14   26 1
  26   15   16 1
  27   15   27 1
  28   15   28 1
  29   16   17 3
  30   17   29 1

#	End of record

