#	Name: ASD05723025
#	Creating user name:	WinNT
#	Creation time:	15. 06. 2019 21:02

#	Modifying user name:	WinNT
#	Modification time:	15. 06. 2019 21:02

#	Program:	/corina/corina34_cracker 3.40 0067  02.08.2006

@<TRIPOS>MOLECULE
ASD05723025
  67   73    0    0    0
SMALL
NO_CHARGES


@<TRIPOS>ATOM
   1 C1            -0.0170     1.4036     0.0098 C.ar    
   2 C2             0.0021    -0.0041     0.0020 C.ar    
   3 C3            -1.1992    -0.7087     0.0104 C.ar    
   4 C4            -2.3878    -0.0391     0.0255 C.ar    
   5 C5            -2.4194     1.3603     0.0334 C.ar    
   6 C6            -1.2338     2.0837     0.0301 C.ar    
   7 C7             1.3856     1.8280    -0.0014 C.2     
   8 C8             2.1318     0.7125    -0.0145 C.2     
   9 N9             1.3224    -0.3908    -0.0126 N.pl3   
  10 C10           -3.7198     2.0710     0.0498 C.ar    
  11 N11           -3.7229     3.3942     0.0570 N.ar    
  12 C12           -4.8694     4.0694     0.0718 C.ar    
  13 C13           -6.0826     3.3527     0.0797 C.ar    
  14 C14           -6.0295     1.9439     0.0719 C.ar    
  15 N15           -4.8409     1.3554     0.0515 N.ar    
  16 N16           -7.1891     1.1934     0.0792 N.3     
  17 C17           -6.8857    -0.2450     0.0688 C.3     
  18 C18           -8.1938    -1.0375     0.1377 C.3     
  19 O19           -9.0357    -0.6538    -0.9529 O.3     
  20 C20           -9.3518     0.7408    -0.9732 C.3     
  21 C21           -8.0554     1.5513    -1.0534 C.3     
  22 N22           -5.1998     5.3925     0.0814 N.pl3   
  23 N23           -6.5965     5.4952     0.0951 N.2     
  24 C24           -7.1245     4.3043     0.0942 C.2     
  25 C25           -4.2563     6.5132     0.0780 C.3     
  26 C26           -4.4906     7.3755    -1.1655 C.3     
  27 C27           -3.5439     8.5775    -1.1325 C.3     
  28 N28           -3.7903     9.3631     0.0834 N.3     
  29 C29           -3.5261     8.5699     1.2907 C.3     
  30 C30           -4.4723     7.3677     1.3301 C.3     
  31 C31           -2.9966    10.5992     0.0815 C.3     
  32 C32           -3.4513    11.4899     1.2088 C.ar    
  33 C33           -2.8639    11.3927     2.4608 C.ar    
  34 C34           -3.3140    12.2329     3.4680 C.ar    
  35 C35           -4.3259    13.1327     3.1923 C.ar    
  36 N36           -4.8621    13.1971     1.9891 N.ar    
  37 C37           -4.4553    12.4180     1.0061 C.ar    
  38 H38           -1.1898    -1.7886     0.0045 H       
  39 H39           -3.3140    -0.5946     0.0312 H       
  40 H40           -1.2543     3.1635     0.0360 H       
  41 H41            1.7495     2.8448     0.0001 H       
  42 H42            3.2115     0.6892    -0.0252 H       
  43 H43            1.6334    -1.3096    -0.0205 H       
  44 H44           -6.3546    -0.4984    -0.8486 H       
  45 H45           -6.2647    -0.4923     0.9298 H       
  46 H46           -7.9773    -2.1038     0.0727 H       
  47 H47           -8.6991    -0.8248     1.0798 H       
  48 H48           -9.9727     0.9607    -1.8417 H       
  49 H49           -9.8907     1.0052    -0.0634 H       
  50 H50           -8.2882     2.6153    -1.0116 H       
  51 H51           -7.5429     1.3266    -1.9888 H       
  52 H52           -8.1815     4.0826     0.1025 H       
  53 H53           -3.2359     6.1303     0.0687 H       
  54 H54           -4.2967     6.7840    -2.0603 H       
  55 H55           -5.5228     7.7255    -1.1765 H       
  56 H56           -2.5117     8.2270    -1.1355 H       
  57 H57           -3.7180     9.2011    -2.0093 H       
  58 H58           -2.4941     8.2195     1.2764 H       
  59 H59           -3.6874     9.1881     2.1739 H       
  60 H60           -5.5042     7.7176     1.3583 H       
  61 H61           -4.2654     6.7707     2.2182 H       
  62 H62           -1.9427    10.3545     0.2142 H       
  63 H63           -3.1326    11.1168    -0.8681 H       
  64 H64           -2.0747    10.6794     2.6473 H       
  65 H65           -2.8795    12.1844     4.4555 H       
  66 H66           -4.6821    13.7905     3.9713 H       
  67 H67           -4.9185    12.4995     0.0339 H       
@<TRIPOS>BOND
   1    1    2 ar
   2    1    7 1
   3    1    6 ar
   4    2    3 ar
   5    2    9 1
   6    3    4 ar
   7    3   38 1
   8    4    5 ar
   9    4   39 1
  10    5    6 ar
  11    5   10 1
  12    6   40 1
  13    7    8 2
  14    7   41 1
  15    8    9 1
  16    8   42 1
  17    9   43 1
  18   10   11 ar
  19   10   15 ar
  20   11   12 ar
  21   12   13 ar
  22   12   22 1
  23   13   14 ar
  24   13   24 1
  25   14   15 ar
  26   14   16 1
  27   16   17 1
  28   16   21 1
  29   17   18 1
  30   17   44 1
  31   17   45 1
  32   18   19 1
  33   18   46 1
  34   18   47 1
  35   19   20 1
  36   20   21 1
  37   20   48 1
  38   20   49 1
  39   21   50 1
  40   21   51 1
  41   22   23 1
  42   22   25 1
  43   23   24 2
  44   24   52 1
  45   25   26 1
  46   25   30 1
  47   25   53 1
  48   26   27 1
  49   26   54 1
  50   26   55 1
  51   27   28 1
  52   27   56 1
  53   27   57 1
  54   28   29 1
  55   28   31 1
  56   29   30 1
  57   29   58 1
  58   29   59 1
  59   30   60 1
  60   30   61 1
  61   31   32 1
  62   31   62 1
  63   31   63 1
  64   32   33 ar
  65   32   37 ar
  66   33   34 ar
  67   33   64 1
  68   34   35 ar
  69   34   65 1
  70   35   36 ar
  71   35   66 1
  72   36   37 ar
  73   37   67 1

#	End of record

