#	Name: ASD07930447
#	Creating user name:	WinNT
#	Creation time:	15. 06. 2019 21:12

#	Modifying user name:	WinNT
#	Modification time:	15. 06. 2019 21:12

#	Program:	/corina/corina34_cracker 3.40 0067  02.08.2006

@<TRIPOS>MOLECULE
ASD07930447
  54   57    0    0    0
SMALL
NO_CHARGES


@<TRIPOS>ATOM
   1 C1             0.0126     1.3474     0.2799 C.2     
   2 N2             3.4828    12.7993    -0.7998 N.2     
   3 N3             4.7366    11.0107     0.0311 N.pl3   
   4 C4             6.1672    10.6883     0.0173 C.3     
   5 C5             6.8299    11.2729     1.2723 C.3     
   6 S6             6.4980    13.0625     1.3123 S.o2    
   7 N7             4.8505    13.1356     1.0736 N.am    
   8 C8             4.3290    12.3284     0.0726 C.2     
   9 C9             3.9948    14.0086     1.8810 C.3     
  10 C10            6.8149    11.2916    -1.2307 C.3     
  11 C11            6.3458     9.1919     0.0046 C.ar    
  12 C12            5.2449     8.3649     0.1088 C.ar    
  13 C13            5.4100     6.9858     0.0966 C.ar    
  14 C14            6.6822     6.4419    -0.0203 C.ar    
  15 C15            7.7807     7.2729    -0.1242 C.ar    
  16 C16            7.6133     8.6473    -0.1172 C.ar    
  17 N17            4.2958     6.1458     0.2024 N.am    
  18 C18            4.2707     4.9730    -0.4611 C.2     
  19 O19            5.1707     4.6886    -1.2272 O.2     
  20 C20            3.1483     4.0323    -0.2574 C.ar    
  21 O21            6.6931    13.5825     2.6203 O.2     
  22 O22            7.0532    13.7041     0.1724 O.2     
  23 C23            3.1225     2.8184    -0.9445 C.ar    
  24 F24            8.6890     9.4583    -0.2190 F       
  25 N25            2.1214     1.9783    -0.7628 N.ar    
  26 C26            1.1368     2.2892     0.0756 C.ar    
  27 C27            1.1637     3.5079     0.7647 C.ar    
  28 N28            2.1647     4.3419     0.5864 N.ar    
  29 C29           -0.1426     0.1303    -0.3231 C.2     
  30 N30           -1.2901    -0.4060     0.1322 N.pl3   
  31 N31           -1.8659     0.4922     1.0385 N.2     
  32 C32           -1.0911     1.5388     1.1368 C.2     
  33 C33           -1.8421    -1.7067    -0.2548 C.3     
  34 H34            3.2075    13.7284    -0.7558 H       
  35 H35            4.0779    10.2990     0.0070 H       
  36 H36            6.4120    10.8017     2.1619 H       
  37 H37            7.9053    11.0994     1.2347 H       
  38 H38            3.9148    14.9839     1.4009 H       
  39 H39            3.0032    13.5647     1.9693 H       
  40 H40            4.4297    14.1267     2.8735 H       
  41 H41            6.6869    12.3740    -1.2193 H       
  42 H42            7.8782    11.0516    -1.2403 H       
  43 H43            6.3412    10.8790    -2.1215 H       
  44 H44            4.2563     8.7900     0.2000 H       
  45 H45            6.8128     5.3698    -0.0296 H       
  46 H46            8.7704     6.8502    -0.2151 H       
  47 H47            3.5417     6.4076     0.7534 H       
  48 H48            3.9222     2.5662    -1.6252 H       
  49 H49            0.3645     3.7610     1.4457 H       
  50 H50            0.5329    -0.3192    -1.0359 H       
  51 H51           -1.2684     2.4033     1.7594 H       
  52 H52           -1.4648    -2.4764     0.4185 H       
  53 H53           -2.9299    -1.6723    -0.1942 H       
  54 H54           -1.5424    -1.9391    -1.2767 H       
@<TRIPOS>BOND
   1    1   29 2
   2    1   26 1
   3    1   32 1
   4    2    8 2
   5    2   34 1
   6    3    4 1
   7    3    8 1
   8    3   35 1
   9    4    5 1
  10    4   10 1
  11    4   11 1
  12    5    6 1
  13    5   36 1
  14    5   37 1
  15    6    7 am
  16    6   21 2
  17    6   22 2
  18    7    8 1
  19    7    9 1
  20    9   38 1
  21    9   39 1
  22    9   40 1
  23   10   41 1
  24   10   42 1
  25   10   43 1
  26   11   12 ar
  27   11   16 ar
  28   12   13 ar
  29   12   44 1
  30   13   14 ar
  31   13   17 1
  32   14   15 ar
  33   14   45 1
  34   15   16 ar
  35   15   46 1
  36   16   24 1
  37   17   18 am
  38   17   47 1
  39   18   19 2
  40   18   20 1
  41   20   23 ar
  42   20   28 ar
  43   23   25 ar
  44   23   48 1
  45   25   26 ar
  46   26   27 ar
  47   27   28 ar
  48   27   49 1
  49   29   30 1
  50   29   50 1
  51   30   31 1
  52   30   33 1
  53   31   32 2
  54   32   51 1
  55   33   52 1
  56   33   53 1
  57   33   54 1

#	End of record

