#	Name: ASD09116142
#	Creating user name:	WinNT
#	Creation time:	15. 06. 2019 21:20

#	Modifying user name:	WinNT
#	Modification time:	15. 06. 2019 21:20

#	Program:	/corina/corina34_cracker 3.40 0067  02.08.2006

@<TRIPOS>MOLECULE
ASD09116142
  82   89    0    0    0
SMALL
NO_CHARGES


@<TRIPOS>ATOM
   1 N1            -0.1162     1.7104     0.5075 N.2     
   2 C2            -0.1331     0.2610     0.7735 C.3     
   3 C3             1.1400     2.0623     0.4621 C.2     
   4 N4             1.9807     1.0274     0.6651 N.2     
   5 C5             1.3384    -0.0944     0.8614 C.2     
   6 N6             1.5629     3.3556     0.2305 N.pl3   
   7 C7             2.9256     3.6712     0.3066 C.ar    
   8 C8             3.4524     4.6710    -0.4995 C.ar    
   9 C9             3.7482     2.9876     1.1928 C.ar    
  10 C10            5.0925     3.2994     1.2680 C.ar    
  11 C11            5.6205     4.2978     0.4560 C.ar    
  12 C12            4.7963     4.9830    -0.4252 C.ar    
  13 N13            1.8766    -1.3214     1.0955 N.pl3   
  14 C14           -0.8295    -0.0321     2.0774 C.ar    
  15 C15           -1.4527     0.9963     2.7542 C.ar    
  16 N16           -0.8336    -1.2736     2.5446 N.ar    
  17 C17           -1.4252    -1.5605     3.6665 C.ar    
  18 C18           -2.0770    -0.5796     4.4231 C.ar    
  19 C19           -2.1024     0.7296     3.9694 C.ar    
  20 C20           -1.4995    -2.9369     4.3016 C.3     
  21 C21           -0.8991    -2.7896     5.7149 C.3     
  22 C22           -1.6117    -1.6547     6.4538 C.3     
  23 N23           -2.6579    -1.0582     5.6002 N.3     
  24 C24           -3.6554    -2.0938     5.2663 C.3     
  25 C25           -2.9998    -3.2402     4.4933 C.3     
  26 C26           -2.7805     1.8021     4.7367 C.ar    
  27 C27           -2.1142     2.9957     5.0090 C.ar    
  28 C28           -4.0886     1.6227     5.1834 C.ar    
  29 C29           -4.7149     2.6245     5.8967 C.ar    
  30 C30           -4.0470     3.8051     6.1682 C.ar    
  31 C31           -2.7505     3.9906     5.7232 C.ar    
  32 F32            5.8932     2.6353     2.1299 F       
  33 N33            6.9831     4.6147     0.5314 N.3     
  34 C34            7.6444     4.4059    -0.7630 C.3     
  35 C35            9.1517     4.6206    -0.6078 C.3     
  36 C36            9.4105     6.0436    -0.1050 C.3     
  37 C37            8.6714     6.2506     1.2199 C.3     
  38 C38            7.1781     5.9886     1.0118 C.3     
  39 N39           10.8520     6.2366     0.1016 N.3     
  40 C40           11.5907     6.0995    -1.1671 C.3     
  41 C41           12.3819     7.4073    -1.3791 C.3     
  42 C42           12.4951     7.9840     0.0567 C.3     
  43 C43           11.1318     7.5736     0.6671 C.3     
  44 H44           -0.6123    -0.2747    -0.0459 H       
  45 H45            0.9165     4.0460     0.0151 H       
  46 H46            2.8115     5.2050    -1.1854 H       
  47 H47            3.3374     2.2128     1.8231 H       
  48 H48            5.2063     5.7580    -1.0560 H       
  49 H49            2.8399    -1.4299     1.1301 H       
  50 H50            1.2971    -2.0880     1.2277 H       
  51 H51           -1.4404     1.9986     2.3523 H       
  52 H52           -0.9853    -3.6945     3.7101 H       
  53 H53           -1.0314    -3.7212     6.2651 H       
  54 H54            0.1638    -2.5612     5.6364 H       
  55 H55           -2.0693    -2.0481     7.3616 H       
  56 H56           -0.8851    -0.8876     6.7213 H       
  57 H57           -4.0912    -2.4833     6.1863 H       
  58 H58           -4.4422    -1.6516     4.6552 H       
  59 H59           -3.4776    -3.3417     3.5189 H       
  60 H60           -3.1144    -4.1685     5.0531 H       
  61 H61           -1.1019     3.1416     4.6622 H       
  62 H62           -4.6112     0.7016     4.9714 H       
  63 H63           -5.7284     2.4866     6.2433 H       
  64 H64           -4.5412     4.5865     6.7264 H       
  65 H65           -2.2337     4.9142     5.9384 H       
  66 H66            7.4559     3.3890    -1.1073 H       
  67 H67            7.2496     5.1147    -1.4910 H       
  68 H68            9.5495     3.9031     0.1098 H       
  69 H69            9.6403     4.4809    -1.5721 H       
  70 H70            9.0476     6.7615    -0.8405 H       
  71 H71            9.0617     5.5587     1.9663 H       
  72 H72            8.8170     7.2754     1.5616 H       
  73 H73            6.7855     6.6899     0.2755 H       
  74 H74            6.6509     6.1212     1.9566 H       
  75 H75           12.2782     5.2558    -1.1065 H       
  76 H76           10.8908     5.9520    -1.9896 H       
  77 H77           13.3697     7.1979    -1.7894 H       
  78 H78           11.8314     8.0901    -2.0263 H       
  79 H79           13.3205     7.5224     0.5988 H       
  80 H80           12.6025     9.0684     0.0346 H       
  81 H81           10.3560     8.2803     0.3724 H       
  82 H82           11.2035     7.5188     1.7534 H       
@<TRIPOS>BOND
   1    1    2 1
   2    1    3 2
   3    2   14 1
   4    2    5 1
   5    2   44 1
   6    3    4 1
   7    3    6 1
   8    4    5 2
   9    5   13 1
  10    6    7 1
  11    6   45 1
  12    7    8 ar
  13    7    9 ar
  14    8   12 ar
  15    8   46 1
  16    9   10 ar
  17    9   47 1
  18   10   11 ar
  19   10   32 1
  20   11   12 ar
  21   11   33 1
  22   12   48 1
  23   13   49 1
  24   13   50 1
  25   14   15 ar
  26   14   16 ar
  27   15   19 ar
  28   15   51 1
  29   16   17 ar
  30   17   18 ar
  31   17   20 1
  32   18   19 ar
  33   18   23 1
  34   19   26 1
  35   20   21 1
  36   20   25 1
  37   20   52 1
  38   21   22 1
  39   21   53 1
  40   21   54 1
  41   22   23 1
  42   22   55 1
  43   22   56 1
  44   23   24 1
  45   24   25 1
  46   24   57 1
  47   24   58 1
  48   25   59 1
  49   25   60 1
  50   26   27 ar
  51   26   28 ar
  52   27   31 ar
  53   27   61 1
  54   28   29 ar
  55   28   62 1
  56   29   30 ar
  57   29   63 1
  58   30   31 ar
  59   30   64 1
  60   31   65 1
  61   33   34 1
  62   33   38 1
  63   34   35 1
  64   34   66 1
  65   34   67 1
  66   35   36 1
  67   35   68 1
  68   35   69 1
  69   36   37 1
  70   36   39 1
  71   36   70 1
  72   37   38 1
  73   37   71 1
  74   37   72 1
  75   38   73 1
  76   38   74 1
  77   39   40 1
  78   39   43 1
  79   40   41 1
  80   40   75 1
  81   40   76 1
  82   41   42 1
  83   41   77 1
  84   41   78 1
  85   42   43 1
  86   42   79 1
  87   42   80 1
  88   43   81 1
  89   43   82 1

#	End of record

