#	Name: ASD04881282
#	Creating user name:	WinNT
#	Creation time:	15. 06. 2019 20:53

#	Modifying user name:	WinNT
#	Modification time:	15. 06. 2019 20:53

#	Program:	/corina/corina34_cracker 3.40 0067  02.08.2006

@<TRIPOS>MOLECULE
ASD04881282
  74   78    0    0    0
SMALL
NO_CHARGES


@<TRIPOS>ATOM
   1 C1             1.0107    -0.3177    -1.2317 C.ar    
   2 C2             0.8371    -1.2959    -2.1939 C.ar    
   3 C3             1.8209    -1.5233    -3.1384 C.ar    
   4 C4             2.9810    -0.7737    -3.1237 C.ar    
   5 C5             3.1586     0.2094    -2.1589 C.ar    
   6 C6             2.1679     0.4353    -1.2114 C.ar    
   7 N7             4.3306     0.9689    -2.1409 N.3     
   8 C8             5.0979     0.7243    -0.9117 C.3     
   9 C9             6.4091     1.5119    -0.9667 C.3     
  10 N10            6.1119     2.9426    -1.1226 N.3     
  11 C11            5.3446     3.1872    -2.3518 C.3     
  12 C12            4.0335     2.3996    -2.2969 C.3     
  13 C13            7.2803     3.6997    -1.1047 C.ar    
  14 C14            7.6920     4.3683    -2.2521 C.ar    
  15 C15            8.8469     5.1182    -2.2388 C.ar    
  16 C16            9.6089     5.2093    -1.0706 C.ar    
  17 C17            9.1972     4.5382     0.0842 C.ar    
  18 C18            8.0345     3.7913     0.0682 C.ar    
  19 N19            7.6150     3.1217     1.2260 N.am    
  20 C20            8.5199     2.7391     2.1486 C.2     
  21 C21            8.0817     1.9364     3.3464 C.3     
  22 O22            9.6871     3.0409     2.0148 O.2     
  23 C23            9.1564     1.5327     4.3578 C.3     
  24 C24            8.1401     2.6194     4.7142 C.3     
  25 C25           10.8464     6.0124    -1.0567 C.2     
  26 O26           11.5087     6.0911    -0.0400 O.2     
  27 N27           11.2428     6.6589    -2.1709 N.am    
  28 C28           12.4717     7.4563    -2.1571 C.3     
  29 C29            4.0530    -1.0227    -4.1532 C.3     
  30 F30            9.0192     0.2894     4.9844 F       
  31 F31           10.4707     1.9365     4.0996 F       
  32 C32           12.6908     8.0795    -3.5371 C.3     
  33 C33           13.9741     8.9124    -3.5226 C.3     
  34 N34           14.1839     9.5091    -4.8441 N.am    
  35 C35           13.6666    10.8205    -5.2521 C.3     
  36 C36           13.7456    10.8330    -6.7948 C.3     
  37 C37           14.8813     9.8178    -7.0605 C.3     
  38 C38           14.8799     8.9284    -5.8367 C.2     
  39 O39           15.4251     7.8476    -5.7627 O.2     
  40 H40            0.2383    -0.1395    -0.4981 H       
  41 H41           -0.0689    -1.8837    -2.2074 H       
  42 H42            1.6824    -2.2882    -3.8882 H       
  43 H43            2.3027     1.1993    -0.4599 H       
  44 H44            4.5154     1.0476    -0.0490 H       
  45 H45            5.3164    -0.3401    -0.8251 H       
  46 H46            6.9666     1.3548    -0.0433 H       
  47 H47            7.0037     1.1695    -1.8136 H       
  48 H48            5.1261     4.2516    -2.4384 H       
  49 H49            5.9271     2.8639    -3.2145 H       
  50 H50            3.4759     2.5567    -3.2202 H       
  51 H51            3.4388     2.7420    -1.4499 H       
  52 H52            7.1049     4.2990    -3.1559 H       
  53 H53            9.1642     5.6361    -3.1318 H       
  54 H54            9.7842     4.6065     0.9881 H       
  55 H55            6.6733     2.9337     1.3632 H       
  56 H56            7.2680     1.2332     3.1689 H       
  57 H57            8.4954     3.6493     4.7478 H       
  58 H58            7.3646     2.3657     5.4369 H       
  59 H59           10.7145     6.5961    -2.9819 H       
  60 H60           12.3836     8.2465    -1.4114 H       
  61 H61           13.3179     6.8155    -1.9093 H       
  62 H62            3.8260    -0.4587    -5.0579 H       
  63 H63            5.0173    -0.7031    -3.7582 H       
  64 H64            4.0911    -2.0864    -4.3882 H       
  65 H65           12.7788     7.2894    -4.2828 H       
  66 H66           11.8446     8.7203    -3.7849 H       
  67 H67           13.8861     9.7025    -2.7770 H       
  68 H68           14.8204     8.2716    -3.2748 H       
  69 H69           12.6328    10.9361    -4.9264 H       
  70 H70           14.2850    11.6160    -4.8363 H       
  71 H71           12.8084    10.4941    -7.2362 H       
  72 H72           14.0133    11.8231    -7.1637 H       
  73 H73           14.6711     9.2364    -7.9582 H       
  74 H74           15.8383    10.3314    -7.1529 H       
@<TRIPOS>BOND
   1    1    2 ar
   2    1    6 ar
   3    1   40 1
   4    2    3 ar
   5    2   41 1
   6    3    4 ar
   7    3   42 1
   8    4    5 ar
   9    4   29 1
  10    5    6 ar
  11    5    7 1
  12    6   43 1
  13    7    8 1
  14    7   12 1
  15    8    9 1
  16    8   44 1
  17    8   45 1
  18    9   10 1
  19    9   46 1
  20    9   47 1
  21   10   11 1
  22   10   13 1
  23   11   12 1
  24   11   48 1
  25   11   49 1
  26   12   50 1
  27   12   51 1
  28   13   14 ar
  29   13   18 ar
  30   14   15 ar
  31   14   52 1
  32   15   16 ar
  33   15   53 1
  34   16   17 ar
  35   16   25 1
  36   17   18 ar
  37   17   54 1
  38   18   19 1
  39   19   20 am
  40   19   55 1
  41   20   21 1
  42   20   22 2
  43   21   23 1
  44   21   24 1
  45   21   56 1
  46   23   30 1
  47   23   31 1
  48   23   24 1
  49   24   57 1
  50   24   58 1
  51   25   26 2
  52   25   27 am
  53   27   28 1
  54   27   59 1
  55   28   32 1
  56   28   60 1
  57   28   61 1
  58   29   62 1
  59   29   63 1
  60   29   64 1
  61   32   33 1
  62   32   65 1
  63   32   66 1
  64   33   34 1
  65   33   67 1
  66   33   68 1
  67   34   35 1
  68   34   38 am
  69   35   36 1
  70   35   69 1
  71   35   70 1
  72   36   37 1
  73   36   71 1
  74   36   72 1
  75   37   38 1
  76   37   73 1
  77   37   74 1
  78   38   39 2

#	End of record

