#	Name: ASD02408391
#	Creating user name:	WinNT
#	Creation time:	15. 06. 2019 20:21

#	Modifying user name:	WinNT
#	Modification time:	15. 06. 2019 20:21

#	Program:	/corina/corina34_cracker 3.40 0067  02.08.2006

@<TRIPOS>MOLECULE
ASD02408391
  25   26    0    0    0
SMALL
NO_CHARGES


@<TRIPOS>ATOM
   1 C1            -0.0054     1.4164     0.1198 C.2     
   2 C2            -0.0096     0.0135    -0.0651 C.2     
   3 C3             1.3274     1.8220     0.1252 C.2     
   4 N4             2.0802     0.7134    -0.0483 N.pl3   
   5 N5             1.2262    -0.3887    -0.1629 N.2     
   6 C6             3.4806     0.6743    -0.1045 C.ar    
   7 C7             4.1906    -0.1301     0.7780 C.ar    
   8 C8             5.5713    -0.1662     0.7198 C.ar    
   9 C9             6.2457     0.5975    -0.2150 C.ar    
  10 C10            5.5422     1.3992    -1.0949 C.ar    
  11 C11            4.1612     1.4355    -1.0465 C.ar    
  12 N12            1.7913     3.1127     0.2783 N.pl3   
  13 C13           -1.1818     2.2807     0.2709 C.2     
  14 N14           -2.4189     1.7467     0.2399 N.am    
  15 O15           -1.0403     3.4796     0.4242 O.2     
  16 Cl16           3.3450    -1.0884     1.9529 Cl      
  17 Cl17           3.2789     2.4420    -2.1521 Cl      
  18 H18           -0.8860    -0.6157    -0.1159 H       
  19 H19            6.1239    -0.7913     1.4056 H       
  20 H20            7.3245     0.5679    -0.2578 H       
  21 H21            6.0722     1.9944    -1.8239 H       
  22 H22            1.1654     3.8534     0.3018 H       
  23 H23            2.7432     3.2792     0.3624 H       
  24 H24           -2.5317     0.7911     0.1177 H       
  25 H25           -3.1964     2.3180     0.3398 H       
@<TRIPOS>BOND
   1    1    2 1
   2    1    3 2
   3    1   13 1
   4    2    5 2
   5    2   18 1
   6    3    4 1
   7    3   12 1
   8    4    5 1
   9    4    6 1
  10    6    7 ar
  11    6   11 ar
  12    7    8 ar
  13    7   16 1
  14    8    9 ar
  15    8   19 1
  16    9   10 ar
  17    9   20 1
  18   10   11 ar
  19   10   21 1
  20   11   17 1
  21   12   22 1
  22   12   23 1
  23   13   14 am
  24   13   15 2
  25   14   24 1
  26   14   25 1

#	End of record

