#	Name: ASD03490062
#	Creating user name:	WinNT
#	Creation time:	15. 06. 2019 20:42

#	Modifying user name:	WinNT
#	Modification time:	15. 06. 2019 20:42

#	Program:	/corina/corina34_cracker 3.40 0067  02.08.2006

@<TRIPOS>MOLECULE
ASD03490062
  54   55    0    0    0
SMALL
NO_CHARGES


@<TRIPOS>ATOM
   1 C1            -0.0184     1.5028     0.0103 C.3     
   2 C2             0.0021    -0.0041     0.0020 C.2     
   3 O3            -1.0943    -0.6882    -0.3610 O.3     
   4 C4            -1.0024    -2.1372    -0.3454 C.3     
   5 N5             1.3604     2.0363     0.0000 N.3     
   6 O6             1.0053    -0.5964     0.3221 O.2     
   7 C7            -2.3389    -2.7377    -0.7856 C.3     
   8 C8            -2.2830    -4.2607    -0.6503 C.3     
   9 O9            -2.5919    -2.3895    -2.1483 O.3     
  10 C10           -3.6196    -4.8613    -1.0905 C.3     
  11 O11           -2.0300    -4.6089     0.7123 O.3     
  12 O12           -4.6804    -4.2616    -0.3440 O.3     
  13 C13           -3.6091    -6.3710    -0.8371 C.3     
  14 C14           -4.9712    -6.9553    -1.2239 C.3     
  15 C15           -6.0663    -6.2396    -0.4271 C.3     
  16 C16           -5.9819    -4.7350    -0.6964 C.3     
  17 O17           -6.2207    -4.4848    -2.0829 O.3     
  18 N18           -2.5604    -6.9961    -1.6468 N.am    
  19 C19           -2.0166    -8.1665    -1.2582 C.2     
  20 C20           -0.9378    -8.8095    -2.0912 C.3     
  21 O21           -2.3953    -8.7021    -0.2382 O.2     
  22 O22           -4.9955    -8.3518    -0.9220 O.3     
  23 C23           -0.6353     2.0265     1.3312 C.3     
  24 C24           -0.0120     3.4439     1.4278 C.3     
  25 C25            1.4040     3.2412     0.8487 C.3     
  26 C26           -7.0182    -4.0176     0.1297 C.2     
  27 O27           -6.6866    -3.1229     0.8709 O.2     
  28 O28           -8.3097    -4.3726     0.0421 O.3     
  29 H29           -0.5771     1.8787    -0.8468 H       
  30 H30           -0.2168    -2.4587    -1.0292 H       
  31 H31           -0.7667    -2.4755     0.6636 H       
  32 H32            2.0188     1.3430     0.3223 H       
  33 H33           -3.1381    -2.3462    -0.1562 H       
  34 H34           -1.4838    -4.6523    -1.2798 H       
  35 H35           -1.9193    -2.7064    -2.7666 H       
  36 H36           -3.7707    -4.6720    -2.1533 H       
  37 H37           -2.7027    -4.2920     1.3306 H       
  38 H38           -3.4175    -6.5618     0.2189 H       
  39 H39           -5.1413    -6.8085    -2.2905 H       
  40 H40           -7.0434    -6.6108    -0.7364 H       
  41 H41           -5.9244    -6.4277     0.6371 H       
  42 H42           -6.1825    -3.5497    -2.3262 H       
  43 H43           -2.2575    -6.5677    -2.4627 H       
  44 H44           -0.7319    -8.1873    -2.9622 H       
  45 H45           -0.0310    -8.9119    -1.4952 H       
  46 H46           -1.2704    -9.7945    -2.4189 H       
  47 H47           -5.8304    -8.7873    -1.1419 H       
  48 H48           -1.7216     2.0817     1.2598 H       
  49 H49           -0.3320     1.4081     2.1760 H       
  50 H50           -0.5767     4.1552     0.8251 H       
  51 H51            0.0395     3.7722     2.4659 H       
  52 H52            2.1190     3.0984     1.6589 H       
  53 H53            1.6870     4.1067     0.2497 H       
  54 H54           -8.9377    -3.8836     0.5913 H       
@<TRIPOS>BOND
   1    1    2 1
   2    1    5 1
   3    1   23 1
   4    1   29 1
   5    2    3 1
   6    2    6 2
   7    3    4 1
   8    4    7 1
   9    4   30 1
  10    4   31 1
  11    5   25 1
  12    5   32 1
  13    7    8 1
  14    7    9 1
  15    7   33 1
  16    8   11 1
  17    8   10 1
  18    8   34 1
  19    9   35 1
  20   10   12 1
  21   10   13 1
  22   10   36 1
  23   11   37 1
  24   12   16 1
  25   13   14 1
  26   13   18 1
  27   13   38 1
  28   14   15 1
  29   14   22 1
  30   14   39 1
  31   15   16 1
  32   15   40 1
  33   15   41 1
  34   16   17 1
  35   16   26 1
  36   17   42 1
  37   18   19 am
  38   18   43 1
  39   19   20 1
  40   19   21 2
  41   20   44 1
  42   20   45 1
  43   20   46 1
  44   22   47 1
  45   23   24 1
  46   23   48 1
  47   23   49 1
  48   24   25 1
  49   24   50 1
  50   24   51 1
  51   25   52 1
  52   25   53 1
  53   26   27 2
  54   26   28 1
  55   28   54 1

#	End of record

