#	Name: ASD02560383
#	Creating user name:	WinNT
#	Creation time:	15. 06. 2019 20:25

#	Modifying user name:	WinNT
#	Modification time:	15. 06. 2019 20:25

#	Program:	/corina/corina34_cracker 3.40 0067  02.08.2006

@<TRIPOS>MOLECULE
ASD02560383
  44   46    0    0    0
SMALL
NO_CHARGES


@<TRIPOS>ATOM
   1 C1             0.0490     0.5543    -0.9425 C.2     
   2 C2            -0.0639    -0.7111    -0.3389 C.2     
   3 C3            -1.2488    -1.1308     0.1472 C.2     
   4 N4            -2.3592    -0.3341     0.0610 N.pl3   
   5 C5            -2.2795     0.9090    -0.5243 C.2     
   6 C6            -1.0415     1.3604    -1.0310 C.2     
   7 C7            -3.6532    -0.5124     0.4639 C.2     
   8 C8            -4.3411     0.6317     0.1146 C.2     
   9 N9            -3.4752     1.4719    -0.4830 N.2     
  10 C10           -5.7790     0.8899     0.3547 C.2     
  11 N11           -4.1768    -1.6337     1.1033 N.3     
  12 C12           -5.6320    -1.7137     0.9183 C.3     
  13 C13           -6.3627     2.0926     0.8462 C.2     
  14 C14           -6.1402    -3.0565     1.4469 C.3     
  15 C15           -7.6558    -3.1397     1.2541 C.3     
  16 C16           -7.6859     1.8208     0.8834 C.2     
  17 O17           -7.8340     0.5617     0.4462 O.3     
  18 N18           -6.7742     0.0593     0.1524 N.2     
  19 C19           -8.7830     2.7523     1.3303 C.3     
  20 C20           -8.1641    -4.4826     1.7827 C.3     
  21 C21           -1.3528    -2.4894     0.7910 C.3     
  22 C22            1.3769     1.0175    -1.4840 C.3     
  23 H23            0.8037    -1.3501    -0.2648 H       
  24 H24           -0.9638     2.3337    -1.4926 H       
  25 H25           -3.7247    -2.4768     0.7828 H       
  26 H26           -6.1128    -0.9025     1.4649 H       
  27 H27           -5.8686    -1.6275    -0.1422 H       
  28 H28           -5.8636     3.0091     1.1245 H       
  29 H29           -5.6594    -3.8677     0.9002 H       
  30 H30           -5.9036    -3.1426     2.5074 H       
  31 H31           -8.1367    -2.3286     1.8008 H       
  32 H32           -7.8924    -3.0536     0.1936 H       
  33 H33           -9.1457     3.3231     0.4754 H       
  34 H34           -9.6026     2.1718     1.7537 H       
  35 H35           -8.3942     3.4360     2.0850 H       
  36 H36           -7.6832    -5.2937     1.2361 H       
  37 H37           -7.9274    -4.5687     2.8432 H       
  38 H38           -9.2438    -4.5419     1.6454 H       
  39 H39           -0.3617    -2.9387     0.8535 H       
  40 H40           -1.7685    -2.3856     1.7933 H       
  41 H41           -2.0034    -3.1265     0.1920 H       
  42 H42            1.4697     0.7143    -2.5269 H       
  43 H43            1.4387     2.1035    -1.4146 H       
  44 H44            2.1826     0.5697    -0.9023 H       
@<TRIPOS>BOND
   1    1    2 1
   2    1   22 1
   3    1    6 2
   4    2    3 2
   5    2   23 1
   6    3    4 1
   7    3   21 1
   8    4    5 1
   9    4    7 1
  10    5    6 1
  11    5    9 2
  12    6   24 1
  13    7    8 2
  14    7   11 1
  15    8    9 1
  16    8   10 1
  17   10   13 1
  18   10   18 2
  19   11   12 1
  20   11   25 1
  21   12   14 1
  22   12   26 1
  23   12   27 1
  24   13   16 2
  25   13   28 1
  26   14   15 1
  27   14   29 1
  28   14   30 1
  29   15   20 1
  30   15   31 1
  31   15   32 1
  32   16   17 1
  33   16   19 1
  34   17   18 1
  35   19   33 1
  36   19   34 1
  37   19   35 1
  38   20   36 1
  39   20   37 1
  40   20   38 1
  41   21   39 1
  42   21   40 1
  43   21   41 1
  44   22   42 1
  45   22   43 1
  46   22   44 1

#	End of record

