#	Name: ASD03092930
#	Creating user name:	WinNT
#	Creation time:	15. 06. 2019 20:33

#	Modifying user name:	WinNT
#	Modification time:	15. 06. 2019 20:33

#	Program:	/corina/corina34_cracker 3.40 0067  02.08.2006

@<TRIPOS>MOLECULE
ASD03092930
  38   40    0    0    0
SMALL
NO_CHARGES


@<TRIPOS>ATOM
   1 C1             0.2213     1.4137     0.2329 C.3     
   2 C2             0.0694    -0.0966     0.0409 C.3     
   3 N3            -1.3521    -0.4505     0.0581 N.pl3   
   4 C4            -2.0311    -0.8694     1.1529 C.2     
   5 C5            -3.3320    -1.1139     0.8235 C.2     
   6 C6            -4.3937    -1.5819     1.7241 C.2     
   7 O7            -5.5190    -1.7602     1.2969 O.2     
   8 N8            -4.1215    -1.8137     3.0235 N.am    
   9 C9            -5.1519    -2.1646     3.9022 C.ar    
  10 C10           -6.2147    -2.9518     3.4664 C.ar    
  11 C11           -7.2113    -3.2728     4.3737 C.ar    
  12 C12           -7.1192    -2.8052     5.6713 C.ar    
  13 N13           -6.0994    -2.0609     6.0527 N.ar    
  14 C14           -5.1273    -1.7376     5.2237 C.ar    
  15 C15           -8.1994    -3.1503     6.6638 C.3     
  16 F16           -7.8700    -4.3437     7.3154 F       
  17 F17           -8.3141    -2.1214     7.6048 F       
  18 F18           -9.4169    -3.3062     5.9926 F       
  19 C19           -3.4625    -0.8153    -0.6145 C.ar    
  20 C20           -4.5183    -0.8671    -1.5209 C.ar    
  21 C21           -4.3058    -0.5124    -2.8374 C.ar    
  22 F22           -5.3269    -0.5610    -3.7207 F       
  23 C23           -3.0461    -0.1052    -3.2578 C.ar    
  24 C24           -1.9939    -0.0500    -2.3697 C.ar    
  25 C25           -2.1902    -0.3985    -1.0377 C.ar    
  26 H26            1.2790     1.6770     0.2201 H       
  27 H27           -0.2930     1.9361    -0.5738 H       
  28 H28           -0.2138     1.7040     1.1892 H       
  29 H29            0.5045    -0.3868    -0.9154 H       
  30 H30            0.5837    -0.6189     0.8476 H       
  31 H31           -1.6063    -0.9914     2.1383 H       
  32 H32           -3.2111    -1.7374     3.3495 H       
  33 H33           -6.2611    -3.3032     2.4462 H       
  34 H34           -8.0506    -3.8811     4.0707 H       
  35 H35           -4.3058    -1.1303     5.5741 H       
  36 H36           -5.4982    -1.1836    -1.1954 H       
  37 H37           -2.8898     0.1704    -4.2903 H       
  38 H38           -1.0184     0.2681    -2.7068 H       
@<TRIPOS>BOND
   1    1    2 1
   2    1   26 1
   3    1   27 1
   4    1   28 1
   5    2    3 1
   6    2   29 1
   7    2   30 1
   8    3   25 1
   9    3    4 1
  10    4    5 2
  11    4   31 1
  12    5    6 1
  13    5   19 1
  14    6    7 2
  15    6    8 am
  16    8    9 1
  17    8   32 1
  18    9   14 ar
  19    9   10 ar
  20   10   11 ar
  21   10   33 1
  22   11   12 ar
  23   11   34 1
  24   12   13 ar
  25   12   15 1
  26   13   14 ar
  27   14   35 1
  28   15   16 1
  29   15   17 1
  30   15   18 1
  31   19   25 ar
  32   19   20 ar
  33   20   21 ar
  34   20   36 1
  35   21   22 1
  36   21   23 ar
  37   23   24 ar
  38   23   37 1
  39   24   25 ar
  40   24   38 1

#	End of record

