#	Name: ASD01914302
#	Creating user name:	WinNT
#	Creation time:	15. 06. 2019 20:03

#	Modifying user name:	WinNT
#	Modification time:	15. 06. 2019 20:03

#	Program:	/corina/corina34_cracker 3.40 0067  02.08.2006

@<TRIPOS>MOLECULE
ASD01914302
  44   46    0    0    0
SMALL
NO_CHARGES


@<TRIPOS>ATOM
   1 C1            -0.0184     1.5028     0.0103 C.2     
   2 C2             0.0021    -0.0041     0.0020 C.3     
   3 O3             1.0197     2.1211     0.0037 O.2     
   4 O4            -1.1898     2.1580     0.0194 O.3     
   5 C5             2.1879    -0.6457     1.0626 C.2     
   6 N6             3.3521    -1.0754     0.6633 N.2     
   7 C7             3.3437    -1.1945    -0.6800 C.2     
   8 C8             2.1146    -0.8189    -1.1204 C.2     
   9 N9             1.3897    -0.4735    -0.0138 N.pl3   
  10 C10            4.4741    -1.6524    -1.5252 C.ar    
  11 C11            5.6866    -2.0087    -0.9375 C.ar    
  12 C12            6.7350    -2.4339    -1.7272 C.ar    
  13 C13            6.5837    -2.5070    -3.1025 C.ar    
  14 C14            5.3804    -2.1539    -3.6908 C.ar    
  15 C15            4.3246    -1.7329    -2.9081 C.ar    
  16 C16            8.0467    -2.8189    -1.0929 C.3     
  17 F17            7.6131    -2.9235    -3.8721 F       
  18 C18            1.7940    -0.3887     2.4943 C.3     
  19 C19            1.9175    -1.6849     3.2978 C.3     
  20 C20            1.5176    -1.4239     4.7514 C.3     
  21 C21            2.4409    -0.3618     5.3516 C.3     
  22 C22            2.3174     0.9343     4.5481 C.3     
  23 C23            2.7173     0.6734     3.0946 C.3     
  24 H24           -0.4983    -0.3791     0.8948 H       
  25 H25           -0.5153    -0.3696    -0.8850 H       
  26 H26           -1.1523     3.1243     0.0245 H       
  27 H27            1.7760    -0.7971    -2.1457 H       
  28 H28            5.8055    -1.9516     0.1344 H       
  29 H29            5.2670    -2.2121    -4.7633 H       
  30 H30            3.3853    -1.4621    -3.3672 H       
  31 H31            8.0357    -3.8819    -0.8521 H       
  32 H32            8.8607    -2.6122    -1.7877 H       
  33 H33            8.1924    -2.2411    -0.1803 H       
  34 H34            0.7632    -0.0361     2.5299 H       
  35 H35            1.2597    -2.4415     2.8702 H       
  36 H36            2.9483    -2.0375     3.2623 H       
  37 H37            0.4868    -1.0713     4.7869 H       
  38 H38            1.6056    -2.3473     5.3238 H       
  39 H39            2.1560    -0.1759     6.3872 H       
  40 H40            3.4717    -0.7145     5.3161 H       
  41 H41            1.2866     1.2870     4.5836 H       
  42 H42            2.9752     1.6910     4.9757 H       
  43 H43            3.7481     0.3208     3.0590 H       
  44 H44            2.6293     1.5968     2.5221 H       
@<TRIPOS>BOND
   1    1    2 1
   2    1    3 2
   3    1    4 1
   4    2    9 1
   5    2   24 1
   6    2   25 1
   7    4   26 1
   8    5    6 2
   9    5    9 1
  10    5   18 1
  11    6    7 1
  12    7    8 2
  13    7   10 1
  14    8    9 1
  15    8   27 1
  16   10   11 ar
  17   10   15 ar
  18   11   12 ar
  19   11   28 1
  20   12   13 ar
  21   12   16 1
  22   13   14 ar
  23   13   17 1
  24   14   15 ar
  25   14   29 1
  26   15   30 1
  27   16   31 1
  28   16   32 1
  29   16   33 1
  30   18   19 1
  31   18   23 1
  32   18   34 1
  33   19   20 1
  34   19   35 1
  35   19   36 1
  36   20   21 1
  37   20   37 1
  38   20   38 1
  39   21   22 1
  40   21   39 1
  41   21   40 1
  42   22   23 1
  43   22   41 1
  44   22   42 1
  45   23   43 1
  46   23   44 1

#	End of record

