#	Name: ASD01028248
#	Creating user name:	WinNT
#	Creation time:	15. 06. 2019 18:56

#	Modifying user name:	WinNT
#	Modification time:	15. 06. 2019 18:56

#	Program:	/corina/corina34_cracker 3.40 0067  02.08.2006

@<TRIPOS>MOLECULE
ASD01028248
  47   51    0    0    0
SMALL
NO_CHARGES


@<TRIPOS>ATOM
   1 C1            -0.0166     1.3719     0.0096 C.ar    
   2 C2             0.0021    -0.0041     0.0020 C.ar    
   3 C3             1.1750     2.1035     0.0021 C.ar    
   4 C4             2.3797     1.4715    -0.0128 C.ar    
   5 C5             2.4326     0.0695    -0.0208 C.ar    
   6 C6             1.2322    -0.6815    -0.0134 C.ar    
   7 C7             3.6676    -0.6170    -0.0367 C.ar    
   8 C8             3.6411    -2.0003    -0.0444 C.ar    
   9 C9             2.4221    -2.6660    -0.0364 C.ar    
  10 N10            1.2804    -2.0188    -0.0211 N.ar    
  11 O11            4.8427     0.0593    -0.0447 O.3     
  12 C12            6.0400    -0.7207    -0.0607 C.3     
  13 C13            7.2364     0.1957    -0.0676 C.2     
  14 N14            8.5454    -0.1836    -0.0826 N.pl3   
  15 C15            9.2971     0.9648    -0.0847 C.2     
  16 N16            8.4672     1.9982    -0.0714 N.2     
  17 C17            7.2114     1.5493    -0.0660 C.2     
  18 N18            9.1740    -1.4326    -0.0949 N.2     
  19 C19           10.4856    -1.5203    -0.1085 C.2     
  20 C20           11.2851    -0.3588    -0.1106 C.2     
  21 C21           10.7025     0.8692    -0.0997 C.2     
  22 C22           11.1316    -2.8559    -0.1214 C.ar    
  23 O23           -1.2065     2.0271     0.0188 O.3     
  24 C24           -1.1606     3.4553     0.0263 C.3     
  25 C25           10.3511    -4.0103    -0.1190 C.ar    
  26 C26           10.9574    -5.2501    -0.1310 C.ar    
  27 C27           12.3371    -5.3480    -0.1453 C.ar    
  28 C28           13.1168    -4.2054    -0.1473 C.ar    
  29 C29           12.5211    -2.9605    -0.1417 C.ar    
  30 H30           -0.9239    -0.5598     0.0082 H       
  31 H31            1.1387     3.1829     0.0079 H       
  32 H32            3.2932     2.0476    -0.0188 H       
  33 H33            4.5646    -2.5602    -0.0569 H       
  34 H34            2.4134    -3.7460    -0.0425 H       
  35 H35            6.0728    -1.3543     0.8256 H       
  36 H36            6.0552    -1.3447    -0.9543 H       
  37 H37            6.3229     2.1631    -0.0554 H       
  38 H38           12.3616    -0.4450    -0.1212 H       
  39 H39           11.3104     1.7619    -0.1011 H       
  40 H40           -0.6396     3.8068    -0.8642 H       
  41 H41           -2.1761     3.8514     0.0333 H       
  42 H42           -0.6312     3.7971     0.9157 H       
  43 H43            9.2738    -3.9350    -0.1075 H       
  44 H44           10.3535    -6.1455    -0.1288 H       
  45 H45           12.8074    -6.3202    -0.1547 H       
  46 H46           14.1936    -4.2877    -0.1582 H       
  47 H47           13.1307    -2.0690    -0.1432 H       
@<TRIPOS>BOND
   1    1    2 ar
   2    1    3 ar
   3    1   23 1
   4    2    6 ar
   5    2   30 1
   6    3    4 ar
   7    3   31 1
   8    4    5 ar
   9    4   32 1
  10    5    6 ar
  11    5    7 ar
  12    6   10 ar
  13    7    8 ar
  14    7   11 1
  15    8    9 ar
  16    8   33 1
  17    9   10 ar
  18    9   34 1
  19   11   12 1
  20   12   13 1
  21   12   35 1
  22   12   36 1
  23   13   14 1
  24   13   17 2
  25   14   15 1
  26   14   18 1
  27   15   16 2
  28   15   21 1
  29   16   17 1
  30   17   37 1
  31   18   19 2
  32   19   20 1
  33   19   22 1
  34   20   21 2
  35   20   38 1
  36   21   39 1
  37   22   25 ar
  38   22   29 ar
  39   23   24 1
  40   24   40 1
  41   24   41 1
  42   24   42 1
  43   25   26 ar
  44   25   43 1
  45   26   27 ar
  46   26   44 1
  47   27   28 ar
  48   27   45 1
  49   28   29 ar
  50   28   46 1
  51   29   47 1

#	End of record

