#	Name: ASD01180296
#	Creating user name:	WinNT
#	Creation time:	15. 06. 2019 19:07

#	Modifying user name:	WinNT
#	Modification time:	15. 06. 2019 19:07

#	Program:	/corina/corina34_cracker 3.40 0067  02.08.2006

@<TRIPOS>MOLECULE
ASD01180296
  65   67    0    0    0
SMALL
NO_CHARGES


@<TRIPOS>ATOM
   1 C1             0.8187     0.7964     0.0547 C.3     
   2 C2             0.6844    -0.7257    -0.0231 C.3     
   3 C3            -1.0938    -2.3916    -0.0228 C.2     
   4 C4            -2.5208    -2.7628     0.0312 C.ar    
   5 C5            -2.9083    -4.1106    -0.0235 C.ar    
   6 C6            -4.2428    -4.4089     0.0296 C.ar    
   7 C7            -5.1711    -3.3744     0.1358 C.ar    
   8 N8            -4.7784    -2.1089     0.1853 N.ar    
   9 C9            -3.5043    -1.7790     0.1433 C.ar    
  10 O10           -0.2439    -3.2561    -0.1154 O.2     
  11 N11           -0.7325    -1.0943     0.0306 N.am    
  12 N12           -6.5222    -3.6725     0.1898 N.pl3   
  13 C13           -6.9747    -5.0552     0.0182 C.3     
  14 C14           -6.9472    -5.7723     1.3694 C.3     
  15 C15           -7.3112    -7.2453     1.1726 C.3     
  16 C16           -6.2224    -7.9338     0.3471 C.3     
  17 C17          -10.9631    -5.0684    -1.5218 C.ar    
  18 C18          -10.0298    -5.9910    -1.9899 C.ar    
  19 C19           -8.7437    -5.9825    -1.4891 C.ar    
  20 C20           -8.3806    -5.0600    -0.5245 C.ar    
  21 C21           -9.3032    -4.1421    -0.0559 C.ar    
  22 C22          -10.5920    -4.1417    -0.5497 C.ar    
  23 C23          -12.3456    -5.0688    -2.0610 C.ar    
  24 C24          -13.2790    -4.1462    -1.5928 C.ar    
  25 C25          -14.5635    -4.1511    -2.0978 C.ar    
  26 C26          -14.9250    -5.0699    -3.0664 C.ar    
  27 C27          -14.0027    -5.9883    -3.5344 C.ar    
  28 C28          -12.7136    -5.9881    -3.0413 C.ar    
  29 C29          -16.3292    -5.0707    -3.6136 C.3     
  30 F30          -16.3974    -4.2227    -4.7242 F       
  31 F31          -16.6798    -6.3698    -3.9965 F       
  32 F32          -17.2140    -4.6203    -2.6280 F       
  33 C33           -7.4260    -7.9289     2.5366 C.3     
  34 S34            2.5731     1.2527    -0.0117 S.o2    
  35 O35            3.2420     0.8356     1.1706 O.2     
  36 O36            3.1129     0.9730    -1.2961 O.2     
  37 O37            2.5738     2.7723     0.0729 O.3     
  38 H38            0.2931     1.2509    -0.7851 H       
  39 H39            0.3859     1.1520     0.9897 H       
  40 H40            1.1172    -1.0814    -0.9581 H       
  41 H41            1.2101    -1.1803     0.8167 H       
  42 H42           -2.1700    -4.8945    -0.1062 H       
  43 H43           -4.5737    -5.4362    -0.0106 H       
  44 H44           -3.2184    -0.7386     0.1912 H       
  45 H45           -1.4106    -0.4046     0.1045 H       
  46 H46           -7.1691    -2.9657     0.3414 H       
  47 H47           -6.3141    -5.5697    -0.6797 H       
  48 H48           -5.9482    -5.6992     1.7993 H       
  49 H49           -7.6672    -5.3069     2.0425 H       
  50 H50           -8.2644    -7.3171     0.6488 H       
  51 H51           -5.2742    -7.8834     0.8822 H       
  52 H52           -6.4937    -8.9771     0.1860 H       
  53 H53           -6.1237    -7.4313    -0.6152 H       
  54 H54          -10.3123    -6.7117    -2.7430 H       
  55 H55           -8.0195    -6.6971    -1.8512 H       
  56 H56           -9.0144    -3.4242     0.6975 H       
  57 H57          -11.3114    -3.4241    -0.1837 H       
  58 H58          -12.9979    -3.4288    -0.8360 H       
  59 H59          -15.2877    -3.4364    -1.7357 H       
  60 H60          -14.2904    -6.7038    -4.2906 H       
  61 H61          -11.9927    -6.7023    -3.4111 H       
  62 H62           -8.2016    -7.4384     3.1247 H       
  63 H63           -7.6853    -8.9783     2.3963 H       
  64 H64           -6.4728    -7.8571     3.0604 H       
  65 H65            3.4561     3.1672     0.0487 H       
@<TRIPOS>BOND
   1    1    2 1
   2    1   34 1
   3    1   38 1
   4    1   39 1
   5    2   11 1
   6    2   40 1
   7    2   41 1
   8    3    4 1
   9    3   10 2
  10    3   11 am
  11    4    5 ar
  12    4    9 ar
  13    5    6 ar
  14    5   42 1
  15    6    7 ar
  16    6   43 1
  17    7    8 ar
  18    7   12 1
  19    8    9 ar
  20    9   44 1
  21   11   45 1
  22   12   13 1
  23   12   46 1
  24   13   14 1
  25   13   20 1
  26   13   47 1
  27   14   15 1
  28   14   48 1
  29   14   49 1
  30   15   16 1
  31   15   33 1
  32   15   50 1
  33   16   51 1
  34   16   52 1
  35   16   53 1
  36   17   18 ar
  37   17   22 ar
  38   17   23 1
  39   18   19 ar
  40   18   54 1
  41   19   20 ar
  42   19   55 1
  43   20   21 ar
  44   21   22 ar
  45   21   56 1
  46   22   57 1
  47   23   24 ar
  48   23   28 ar
  49   24   25 ar
  50   24   58 1
  51   25   26 ar
  52   25   59 1
  53   26   27 ar
  54   26   29 1
  55   27   28 ar
  56   27   60 1
  57   28   61 1
  58   29   30 1
  59   29   31 1
  60   29   32 1
  61   33   62 1
  62   33   63 1
  63   33   64 1
  64   34   35 2
  65   34   36 2
  66   34   37 1
  67   37   65 1

#	End of record

