#	Name: ASD01915299
#	Creating user name:	WinNT
#	Creation time:	15. 06. 2019 20:05

#	Modifying user name:	WinNT
#	Modification time:	15. 06. 2019 20:05

#	Program:	/corina/corina34_cracker 3.40 0067  02.08.2006

@<TRIPOS>MOLECULE
ASD01915299
  41   44    0    0    0
SMALL
NO_CHARGES


@<TRIPOS>ATOM
   1 C1            -0.0168     1.3843     0.0097 C.ar    
   2 C2             0.0021    -0.0041     0.0020 C.ar    
   3 C3            -1.1777    -0.7246     0.0094 C.ar    
   4 C4            -2.3999    -0.0665     0.0251 C.ar    
   5 C5            -2.4192     1.3375     0.0333 C.ar    
   6 C6            -1.2260     2.0594     0.0306 C.ar    
   7 N7            -3.7078    -0.5524     0.0356 N.am    
   8 C8            -4.6034     0.4498     0.0503 C.2     
   9 C9            -3.8381     1.7397     0.0499 C.2     
  10 C10           -4.0602    -1.9744     0.0303 C.3     
  11 C11           -4.1664    -2.4709     1.4492 C.ar    
  12 O12           -4.2876     2.8669     0.0615 O.2     
  13 O13           -5.8108     0.3324     0.0613 O.2     
  14 C14           -5.4022    -2.5026     2.0684 C.ar    
  15 C15           -5.4950    -2.9599     3.3720 C.ar    
  16 C16           -4.3252    -3.3744     4.0137 C.ar    
  17 C17           -3.1179    -3.3117     3.3208 C.ar    
  18 N18           -3.0796    -2.8737     2.0792 N.ar    
  19 C19           -4.3676    -3.8730     5.4108 C.ar    
  20 C20           -3.1978    -4.2875     6.0525 C.ar    
  21 C21           -3.2906    -4.7445     7.3562 C.ar    
  22 C22           -4.5263    -4.7758     7.9756 C.ar    
  23 N23           -5.6139    -4.3777     7.3439 N.ar    
  24 C24           -5.5740    -3.9299     6.1058 C.ar    
  25 O25            1.1513     2.0807     0.0022 O.3     
  26 C26            2.3605     1.3194    -0.0134 C.3     
  27 F27            2.3928     0.5189    -1.1603 F       
  28 F28            3.4579     2.1871    -0.0192 F       
  29 F29            2.4146     0.5067     1.1241 F       
  30 H30            0.9475    -0.5260    -0.0102 H       
  31 H31           -1.1484    -1.8042     0.0026 H       
  32 H32           -1.2448     3.1392     0.0373 H       
  33 H33           -5.0167    -2.1098    -0.4746 H       
  34 H34           -3.2891    -2.5379    -0.4951 H       
  35 H35           -6.2855    -2.1737     1.5412 H       
  36 H36           -6.4475    -2.9951     3.8800 H       
  37 H37           -2.2060    -3.6289     3.8048 H       
  38 H38           -2.2454    -4.2527     5.5444 H       
  39 H39           -2.4072    -5.0733     7.8835 H       
  40 H40           -4.6025    -5.1319     8.9923 H       
  41 H41           -6.4859    -3.6129     5.6218 H       
@<TRIPOS>BOND
   1    1    2 ar
   2    1   25 1
   3    1    6 ar
   4    2    3 ar
   5    2   30 1
   6    3    4 ar
   7    3   31 1
   8    4    5 ar
   9    4    7 1
  10    5    6 ar
  11    5    9 1
  12    6   32 1
  13    7    8 am
  14    7   10 1
  15    8    9 1
  16    8   13 2
  17    9   12 2
  18   10   11 1
  19   10   33 1
  20   10   34 1
  21   11   14 ar
  22   11   18 ar
  23   14   15 ar
  24   14   35 1
  25   15   16 ar
  26   15   36 1
  27   16   17 ar
  28   16   19 1
  29   17   18 ar
  30   17   37 1
  31   19   20 ar
  32   19   24 ar
  33   20   21 ar
  34   20   38 1
  35   21   22 ar
  36   21   39 1
  37   22   23 ar
  38   22   40 1
  39   23   24 ar
  40   24   41 1
  41   25   26 1
  42   26   27 1
  43   26   28 1
  44   26   29 1

#	End of record

