#	Name: ASD00111030
#	Creating user name:	WinNT
#	Creation time:	15. 06. 2019 18:30

#	Modifying user name:	WinNT
#	Modification time:	15. 06. 2019 18:30

#	Program:	/corina/corina34_cracker 3.40 0067  02.08.2006

@<TRIPOS>MOLECULE
ASD00111030
  37   39    0    0    0
SMALL
NO_CHARGES


@<TRIPOS>ATOM
   1 C1            -0.0168     1.3890     0.0097 C.ar    
   2 C2             0.0021    -0.0041     0.0020 C.ar    
   3 C3             1.2213    -0.6808    -0.0127 C.ar    
   4 C4             2.3990     0.0391    -0.0194 C.ar    
   5 C5             2.3747     1.4136    -0.0124 C.ar    
   6 C6             1.1705     2.0947     0.0021 C.ar    
   7 C7             3.7257    -0.6920    -0.0336 C.3     
   8 C8             4.3820    -0.4714    -1.4001 C.3     
   9 N9             5.1227     0.7793    -1.4226 N.3     
  10 C10            4.3383     2.0028    -1.3897 C.3     
  11 C11            3.6758     2.1899    -0.0210 C.3     
  12 C12            3.3921     3.6745     0.2160 C.3     
  13 C13           -1.2714    -0.7654     0.0100 C.ar    
  14 C14           -2.2611    -0.4642     0.9448 C.ar    
  15 C15           -3.4447    -1.1769     0.9471 C.ar    
  16 C16           -3.6480    -2.1870     0.0250 C.ar    
  17 C17           -2.6690    -2.4896    -0.9046 C.ar    
  18 C18           -1.4853    -1.7805    -0.9204 C.ar    
  19 Cl19          -2.0063     0.8031     2.1036 Cl      
  20 H20           -0.9591     1.9167     0.0170 H       
  21 H21            1.2439    -1.7606    -0.0184 H       
  22 H22            1.1589     3.1746     0.0071 H       
  23 H23            4.3707    -0.2978     0.7517 H       
  24 H24            3.5598    -1.7573     0.1267 H       
  25 H25            5.0642    -1.2959    -1.6073 H       
  26 H26            3.6096    -0.4445    -2.1686 H       
  27 H27            5.8377     0.7890    -0.7107 H       
  28 H28            4.9908     2.8524    -1.5912 H       
  29 H29            3.5666     1.9545    -2.1580 H       
  30 H30            4.3346     1.8118     0.7608 H       
  31 H31            2.7250     4.0457    -0.5620 H       
  32 H32            2.9209     3.8033     1.1905 H       
  33 H33            4.3282     4.2323     0.1885 H       
  34 H34           -4.2123    -0.9448     1.6705 H       
  35 H35           -4.5744    -2.7421     0.0307 H       
  36 H36           -2.8333    -3.2799    -1.6222 H       
  37 H37           -0.7222    -2.0178    -1.6470 H       
@<TRIPOS>BOND
   1    1    2 ar
   2    1    6 ar
   3    1   20 1
   4    2    3 ar
   5    2   13 1
   6    3    4 ar
   7    3   21 1
   8    4    5 ar
   9    4    7 1
  10    5    6 ar
  11    5   11 1
  12    6   22 1
  13    7    8 1
  14    7   23 1
  15    7   24 1
  16    8    9 1
  17    8   25 1
  18    8   26 1
  19    9   10 1
  20    9   27 1
  21   10   11 1
  22   10   28 1
  23   10   29 1
  24   11   12 1
  25   11   30 1
  26   12   31 1
  27   12   32 1
  28   12   33 1
  29   13   14 ar
  30   13   18 ar
  31   14   15 ar
  32   14   19 1
  33   15   16 ar
  34   15   34 1
  35   16   17 ar
  36   16   35 1
  37   17   18 ar
  38   17   36 1
  39   18   37 1

#	End of record

