#	Name: ASD00990127
#	Creating user name:	WinNT
#	Creation time:	15. 06. 2019 18:54

#	Modifying user name:	WinNT
#	Modification time:	15. 06. 2019 18:54

#	Program:	/corina/corina34_cracker 3.40 0067  02.08.2006

@<TRIPOS>MOLECULE
ASD00990127
  61   65    0    0    0
SMALL
NO_CHARGES


@<TRIPOS>ATOM
   1 Br1            0.0021    -0.0041     0.0020 Br      
   2 C2            -0.0236     1.8867     0.0124 C.ar    
   3 C3            -1.2296     2.5635     0.0333 C.ar    
   4 C4            -1.2422     3.9440     0.0394 C.ar    
   5 C5            -0.0524     4.6557     0.0239 C.ar    
   6 C6            -0.1157     6.1615     0.0198 C.3     
   7 C7             1.2421     6.7421     0.4160 C.3     
   8 N8             2.2814     6.1062    -0.4093 N.3     
   9 C9             3.5448     6.8517    -0.3314 C.3     
  10 C10            4.5188     6.3157    -1.3825 C.3     
  11 C11            5.8347     7.0920    -1.3013 C.3     
  12 H12            5.6337     8.1589    -1.3990 H       
  13 C13            6.5047     6.8206     0.0471 C.3     
  14 C14            7.8206     7.5970     0.1283 C.3     
  15 C15            8.7486     7.1473    -1.0020 C.3     
  16 H16            8.9496     6.0805    -0.9043 H       
  17 C17            8.0786     7.4187    -2.3505 C.3     
  18 C18            6.7627     6.6423    -2.4316 C.3     
  19 N19           10.0085     7.8907    -0.9243 N.am    
  20 C20           11.1350     7.3639    -1.4440 C.2     
  21 O21           11.1054     6.2711    -1.9775 O.2     
  22 C22           12.3998     8.1101    -1.3660 C.2     
  23 C23           13.5946     7.6883    -1.8562 C.2     
  24 C24           14.5534     8.6924    -1.5783 C.ar    
  25 C25           15.9244     8.8120    -1.8390 C.ar    
  26 C26           16.5968     9.9296    -1.4373 C.ar    
  27 C27           15.9344    10.9523    -0.7706 C.ar    
  28 C28           14.5869    10.8583    -0.5026 C.ar    
  29 C29           13.8791     9.7285    -0.9026 C.ar    
  30 N30           12.5611     9.3544    -0.7879 N.pl3   
  31 H31           11.8602     9.8771    -0.3678 H       
  32 C32            2.4690     4.7100    -0.0024 C.3     
  33 C33            1.1505     3.9820     0.0068 C.ar    
  34 C34            1.1623     2.5953     0.0049 C.ar    
  35 H35           -2.1590     2.0135     0.0446 H       
  36 H36           -2.1839     4.4724     0.0558 H       
  37 H37           -0.3808     6.5098    -0.9785 H       
  38 H38           -0.8726     6.4939     0.7302 H       
  39 H39            1.2447     7.8183     0.2429 H       
  40 H40            1.4347     6.5374     1.4691 H       
  41 H41            3.3550     7.9088    -0.5175 H       
  42 H42            3.9781     6.7295     0.6613 H       
  43 H43            4.7086     5.2585    -1.1964 H       
  44 H44            4.0855     6.4378    -2.3752 H       
  45 H45            5.8435     7.1410     0.8523 H       
  46 H46            6.7057     5.7538     0.1448 H       
  47 H47            7.6196     8.6639     0.0306 H       
  48 H48            8.2979     7.4037     1.0889 H       
  49 H49            7.8776     8.4856    -2.4481 H       
  50 H50            8.7397     7.0984    -3.1557 H       
  51 H51            6.9637     5.5755    -2.3339 H       
  52 H52            6.2854     6.8357    -3.3923 H       
  53 H53           10.0321     8.7621    -0.4989 H       
  54 H54           13.7798     6.7546    -2.3664 H       
  55 H55           16.4481     8.0217    -2.3562 H       
  56 H56           17.6539    10.0195    -1.6395 H       
  57 H57           16.4816    11.8297    -0.4589 H       
  58 H58           14.0808    11.6587     0.0167 H       
  59 H59            3.1468     4.2192    -0.7009 H       
  60 H60            2.9035     4.6813     0.9968 H       
  61 H61            2.1039     2.0663    -0.0071 H       
@<TRIPOS>BOND
   1    1    2 1
   2    2   34 ar
   3    2    3 ar
   4    3    4 ar
   5    3   35 1
   6    4    5 ar
   7    4   36 1
   8    5   33 ar
   9    5    6 1
  10    6    7 1
  11    6   37 1
  12    6   38 1
  13    7    8 1
  14    7   39 1
  15    7   40 1
  16    8    9 1
  17    8   32 1
  18    9   10 1
  19    9   41 1
  20    9   42 1
  21   10   11 1
  22   10   43 1
  23   10   44 1
  24   11   12 1
  25   11   18 1
  26   11   13 1
  27   13   14 1
  28   13   45 1
  29   13   46 1
  30   14   15 1
  31   14   47 1
  32   14   48 1
  33   15   16 1
  34   15   17 1
  35   15   19 1
  36   17   18 1
  37   17   49 1
  38   17   50 1
  39   18   51 1
  40   18   52 1
  41   19   20 am
  42   19   53 1
  43   20   21 2
  44   20   22 1
  45   22   30 1
  46   22   23 2
  47   23   24 1
  48   23   54 1
  49   24   29 ar
  50   24   25 ar
  51   25   26 ar
  52   25   55 1
  53   26   27 ar
  54   26   56 1
  55   27   28 ar
  56   27   57 1
  57   28   29 ar
  58   28   58 1
  59   29   30 1
  60   30   31 1
  61   32   33 1
  62   32   59 1
  63   32   60 1
  64   33   34 ar
  65   34   61 1

#	End of record

