#	Name: ASD04882429
#	Creating user name:	WinNT
#	Creation time:	15. 06. 2019 20:54

#	Modifying user name:	WinNT
#	Modification time:	15. 06. 2019 20:54

#	Program:	/corina/corina34_cracker 3.40 0067  02.08.2006

@<TRIPOS>MOLECULE
ASD04882429
  87   91    0    0    0
SMALL
NO_CHARGES


@<TRIPOS>ATOM
   1 C1            -0.0215     1.4012    -0.0092 C.ar    
   2 C2            -0.0115     0.0036    -0.0053 C.ar    
   3 C3            -1.2093    -0.7019    -0.0165 C.ar    
   4 C4            -2.4096    -0.0269    -0.0320 C.ar    
   5 C5            -2.4267     1.3707    -0.0364 C.ar    
   6 C6            -1.2239     2.0825    -0.0185 C.ar    
   7 N7             1.1998    -0.6830     0.0094 N.3     
   8 C8             1.3071    -1.5363     1.2011 C.3     
   9 C9             1.3723    -1.4731    -1.2176 C.3     
  10 C10            2.7461    -2.1473    -1.1982 C.3     
  11 N11            2.8534    -3.0005    -0.0065 N.3     
  12 C12            2.6809    -2.2105     1.2206 C.3     
  13 C13           -3.7126     2.0937    -0.0540 C.2     
  14 O14           -3.7265     3.3095    -0.0578 O.2     
  15 N15           -4.8719     1.4064    -0.0657 N.am    
  16 N16            1.1866     2.1110     0.0021 N.am    
  17 C17            1.2296     3.3600     0.5068 C.2     
  18 O18            0.2069     3.8985     0.8853 O.2     
  19 C19            2.5162     4.0733     0.5999 C.2     
  20 N20            3.7329     3.5991     0.2178 N.2     
  21 C21            4.6245     4.5142     0.4546 C.2     
  22 O22            4.0246     5.5882     0.9871 O.3     
  23 C23            2.7098     5.3324     1.0790 C.2     
  24 C24            6.1000     4.3876     0.1756 C.3     
  25 C25            4.0684    -3.6893     0.0082 C.ar    
  26 C26            4.0812    -5.0781     0.0122 C.ar    
  27 C27            5.2670    -2.9867     0.0133 C.ar    
  28 C28            6.4664    -3.6707     0.0279 C.ar    
  29 C29            6.4755    -5.0537     0.0371 C.ar    
  30 C30            5.2845    -5.7561     0.0268 C.ar    
  31 C31            2.7837    -5.8445     0.0010 C.3     
  32 C32            6.7251     5.3953    -0.7913 C.3     
  33 C33            7.0167     5.4910     0.7076 C.3     
  34 C34           -6.1489     2.1243    -0.0830 C.3     
  35 C35           -7.3003     1.1168    -0.0937 C.3     
  36 O36           -7.2984     0.3784     1.1298 O.3     
  37 C37           -8.3402    -0.5953     1.2226 C.3     
  38 C38           -8.2417    -1.3211     2.5659 C.3     
  39 O39           -8.4925    -0.3967     3.6263 O.3     
  40 C40           -8.4244    -0.9762     4.9308 C.3     
  41 C41           -8.7079     0.0989     5.9819 C.3     
  42 N42          -10.0876     0.5700     5.8387 N.am    
  43 C43          -10.5630     1.5239     6.6636 C.2     
  44 O44           -9.8486     1.9923     7.5245 O.2     
  45 C45          -11.9824     2.0086     6.5163 C.3     
  46 H46           -1.1986    -1.7819    -0.0134 H       
  47 H47           -3.3385    -0.5778    -0.0410 H       
  48 H48           -1.2340     3.1624    -0.0215 H       
  49 H49            1.1885    -0.9265     2.0968 H       
  50 H50            0.5283    -2.2984     1.1740 H       
  51 H51            0.5942    -2.2345    -1.2722 H       
  52 H52            1.3013    -0.8173    -2.0854 H       
  53 H53            2.8647    -2.7571    -2.0939 H       
  54 H54            3.5249    -1.3851    -1.1711 H       
  55 H55            3.4590    -1.4490     1.2752 H       
  56 H56            2.7519    -2.8663     2.0883 H       
  57 H57           -4.8608     0.4365    -0.0626 H       
  58 H58            1.9919     1.7035    -0.3534 H       
  59 H59            1.9512     5.9967     1.4659 H       
  60 H60            6.4908     3.3702     0.1643 H       
  61 H61            5.2606    -1.9067     0.0054 H       
  62 H62            7.3985    -3.1252     0.0318 H       
  63 H63            7.4150    -5.5863     0.0479 H       
  64 H64            5.2951    -6.8360     0.0341 H       
  65 H65            2.4814    -6.0321    -1.0293 H       
  66 H66            2.9181    -6.7941     0.5188 H       
  67 H67            2.0130    -5.2615     0.5054 H       
  68 H68            7.5274     5.0408    -1.4384 H       
  69 H69            6.0691     6.1497    -1.2255 H       
  70 H70            6.5526     6.3085     1.2595 H       
  71 H71            8.0109     5.1996     1.0466 H       
  72 H72           -6.2244     2.7530     0.8042 H       
  73 H73           -6.2032     2.7476    -0.9756 H       
  74 H74           -8.2467     1.6477    -0.1961 H       
  75 H75           -7.1756     0.4314    -0.9320 H       
  76 H76           -9.3082    -0.0999     1.1475 H       
  77 H77           -8.2371    -1.3162     0.4116 H       
  78 H78           -8.9794    -2.1228     2.6006 H       
  79 H79           -7.2425    -1.7416     2.6792 H       
  80 H80           -9.1658    -1.7707     5.0146 H       
  81 H81           -7.4290    -1.3895     5.0932 H       
  82 H82           -8.5689    -0.3213     6.9780 H       
  83 H83           -8.0222     0.9344     5.8411 H       
  84 H84          -10.6590     0.1954     5.1501 H       
  85 H85          -12.6680     1.1730     6.6571 H       
  86 H86          -12.1843     2.7745     7.2651 H       
  87 H87          -12.1213     2.4287     5.5202 H       
@<TRIPOS>BOND
   1    1    2 ar
   2    1   16 1
   3    1    6 ar
   4    2    3 ar
   5    2    7 1
   6    3    4 ar
   7    3   46 1
   8    4    5 ar
   9    4   47 1
  10    5    6 ar
  11    5   13 1
  12    6   48 1
  13    7    8 1
  14    7    9 1
  15    8   12 1
  16    8   49 1
  17    8   50 1
  18    9   10 1
  19    9   51 1
  20    9   52 1
  21   10   11 1
  22   10   53 1
  23   10   54 1
  24   11   12 1
  25   11   25 1
  26   12   55 1
  27   12   56 1
  28   13   14 2
  29   13   15 am
  30   15   34 1
  31   15   57 1
  32   16   17 am
  33   16   58 1
  34   17   18 2
  35   17   19 1
  36   19   20 1
  37   19   23 2
  38   20   21 2
  39   21   22 1
  40   21   24 1
  41   22   23 1
  42   23   59 1
  43   24   32 1
  44   24   33 1
  45   24   60 1
  46   25   26 ar
  47   25   27 ar
  48   26   31 1
  49   26   30 ar
  50   27   28 ar
  51   27   61 1
  52   28   29 ar
  53   28   62 1
  54   29   30 ar
  55   29   63 1
  56   30   64 1
  57   31   65 1
  58   31   66 1
  59   31   67 1
  60   32   33 1
  61   32   68 1
  62   32   69 1
  63   33   70 1
  64   33   71 1
  65   34   35 1
  66   34   72 1
  67   34   73 1
  68   35   36 1
  69   35   74 1
  70   35   75 1
  71   36   37 1
  72   37   38 1
  73   37   76 1
  74   37   77 1
  75   38   39 1
  76   38   78 1
  77   38   79 1
  78   39   40 1
  79   40   41 1
  80   40   80 1
  81   40   81 1
  82   41   42 1
  83   41   82 1
  84   41   83 1
  85   42   43 am
  86   42   84 1
  87   43   44 2
  88   43   45 1
  89   45   85 1
  90   45   86 1
  91   45   87 1

#	End of record

