#	Name: ASD01940219
#	Creating user name:	WinNT
#	Creation time:	15. 06. 2019 20:12

#	Modifying user name:	WinNT
#	Modification time:	15. 06. 2019 20:12

#	Program:	/corina/corina34_cracker 3.40 0067  02.08.2006

@<TRIPOS>MOLECULE
ASD01940219
  45   47    0    0    0
SMALL
NO_CHARGES


@<TRIPOS>ATOM
   1 C1            -0.6654    -2.9408     1.5864 C.3     
   2 C2             6.0034    -0.1168     7.7977 C.ar    
   3 F3             1.8036     2.4589     3.0791 F       
   4 C4             0.8533     1.5369     3.3474 C.ar    
   5 C5             1.2010     0.1991     3.4807 C.ar    
   6 C6             0.2170    -0.7485     3.7574 C.ar    
   7 C7            -1.1043    -0.3514     3.8983 C.ar    
   8 C8            -1.4447     0.9821     3.7645 C.ar    
   9 C9            -0.4684     1.9260     3.4953 C.ar    
  10 N10            2.5378    -0.1972     3.3369 N.pl3   
  11 N11            0.5620    -2.0999     3.8926 N.am    
  12 C12            3.3938    -0.1772     4.4386 C.ar    
  13 C13            2.9041     0.1726     5.6920 C.ar    
  14 C14            3.7482     0.1925     6.7818 C.ar    
  15 C15            5.0934    -0.1382     6.6265 C.ar    
  16 C16            5.5826    -0.4886     5.3686 C.ar    
  17 C17            4.7345    -0.5125     4.2826 C.ar    
  18 C18            5.2625    -0.8917     2.9230 C.3     
  19 F19           -0.8057     3.2283     3.3711 F       
  20 S20           -0.4740    -3.2763     3.3588 S.o2    
  21 O21           -1.6877    -3.0143     4.0498 O.2     
  22 O22            0.2380    -4.4891     3.5626 O.2     
  23 C23            5.5164     0.2336     9.0556 C.ar    
  24 C24            6.3676     0.2518    10.1418 C.ar    
  25 C25            7.7019    -0.0769     9.9837 C.ar    
  26 C26            8.1909    -0.4251     8.7374 C.ar    
  27 C27            7.3474    -0.4527     7.6454 C.ar    
  28 H28            0.3070    -3.0027     1.0978 H       
  29 H29           -1.3397    -3.6765     1.1480 H       
  30 H30           -1.0785    -1.9416     1.4483 H       
  31 H31           -1.8681    -1.0843     4.1124 H       
  32 H32           -2.4744     1.2887     3.8743 H       
  33 H33            2.8678    -0.4855     2.4715 H       
  34 H34            1.4077    -2.3462     4.2988 H       
  35 H35            1.8619     0.4291     5.8119 H       
  36 H36            3.3675     0.4646     7.7552 H       
  37 H37            6.6245    -0.7452     5.2463 H       
  38 H38            5.1732    -1.9694     2.7861 H       
  39 H39            4.6860    -0.3787     2.1533 H       
  40 H40            6.3103    -0.6013     2.8463 H       
  41 H41            4.4749     0.4908     9.1801 H       
  42 H42            5.9913     0.5236    11.1169 H       
  43 H43            8.3645    -0.0614    10.8364 H       
  44 H44            9.2336    -0.6805     8.6197 H       
  45 H45            7.7302    -0.7251     6.6729 H       
@<TRIPOS>BOND
   1    1   20 1
   2    1   28 1
   3    1   29 1
   4    1   30 1
   5    2   23 ar
   6    2   15 1
   7    2   27 ar
   8    3    4 1
   9    4    5 ar
  10    4    9 ar
  11    5    6 ar
  12    5   10 1
  13    6    7 ar
  14    6   11 1
  15    7    8 ar
  16    7   31 1
  17    8    9 ar
  18    8   32 1
  19    9   19 1
  20   10   12 1
  21   10   33 1
  22   11   20 am
  23   11   34 1
  24   12   13 ar
  25   12   17 ar
  26   13   14 ar
  27   13   35 1
  28   14   15 ar
  29   14   36 1
  30   15   16 ar
  31   16   17 ar
  32   16   37 1
  33   17   18 1
  34   18   38 1
  35   18   39 1
  36   18   40 1
  37   20   21 2
  38   20   22 2
  39   23   24 ar
  40   23   41 1
  41   24   25 ar
  42   24   42 1
  43   25   26 ar
  44   25   43 1
  45   26   27 ar
  46   26   44 1
  47   27   45 1

#	End of record

