#	Name: ASD01148146
#	Creating user name:	WinNT
#	Creation time:	15. 06. 2019 19:02

#	Modifying user name:	WinNT
#	Modification time:	15. 06. 2019 19:02

#	Program:	/corina/corina34_cracker 3.40 0067  02.08.2006

@<TRIPOS>MOLECULE
ASD01148146
  17   17    0    0    0
SMALL
NO_CHARGES


@<TRIPOS>ATOM
   1 C1            -0.0179     1.4696     0.0101 C.2     
   2 C2             0.0021    -0.0041     0.0020 C.ar    
   3 C3            -1.1935    -0.7334     0.0095 C.ar    
   4 C4            -1.1203    -2.1145     0.0009 C.ar    
   5 C5             0.1187    -2.7304    -0.0147 C.ar    
   6 N6             1.2325    -2.0242    -0.0215 N.ar    
   7 C7             1.2194    -0.7019    -0.0193 C.ar    
   8 O8             1.0260     2.0915     0.0035 O.2     
   9 O9            -1.1939     2.1275     0.0193 O.3     
  10 N10           -2.3573    -2.9273     0.0088 N.pl3   
  11 O11           -3.4454    -2.3802     0.0230 O.2     
  12 O12           -2.2872    -4.1433     0.0012 O.2     
  13 O13            2.3876    -0.0172    -0.0320 O.3     
  14 H14           -2.1489    -0.2299     0.0221 H       
  15 H15            0.1747    -3.8089    -0.0210 H       
  16 H16           -1.1564     3.0937     0.0243 H       
  17 H17            2.7395     0.1766     0.8476 H       
@<TRIPOS>BOND
   1    1    2 1
   2    1    8 2
   3    1    9 1
   4    2    3 ar
   5    2    7 ar
   6    3    4 ar
   7    3   14 1
   8    4    5 ar
   9    4   10 1
  10    5    6 ar
  11    5   15 1
  12    6    7 ar
  13    7   13 1
  14    9   16 1
  15   10   11 2
  16   10   12 2
  17   13   17 1

#	End of record

