#	Name: ASD01670004
#	Creating user name:	WinNT
#	Creation time:	15. 06. 2019 19:22

#	Modifying user name:	WinNT
#	Modification time:	15. 06. 2019 19:22

#	Program:	/corina/corina34_cracker 3.40 0067  02.08.2006

@<TRIPOS>MOLECULE
ASD01670004
  54   55    0    0    0
SMALL
NO_CHARGES


@<TRIPOS>ATOM
   1 C1            -0.3649     1.2492    -0.0999 C.3     
   2 C2            -0.0524    -0.2473    -0.0384 C.3     
   3 C3            -1.3603    -1.0410    -0.0186 C.3     
   4 C4             0.7687    -0.6477    -1.2657 C.3     
   5 C5             2.1398     0.0285    -1.2048 C.3     
   6 C6             2.9300    -0.5266    -0.0181 C.3     
   7 C7             4.2447     0.2013     0.0947 C.ar    
   8 C8             4.3202     1.4025     0.8064 C.ar    
   9 C9             5.5455     2.0727     0.9071 C.ar    
  10 C10            6.6768     1.5365     0.2974 C.ar    
  11 C11            6.5849     0.3456    -0.4032 C.ar    
  12 C12            5.3738    -0.3194    -0.4987 C.ar    
  13 O13            7.7347     2.3658     0.5369 O.3     
  14 C14            7.3273     3.1986     1.6387 C.3     
  15 O15            5.8922     3.2347     1.5271 O.3     
  16 C16            3.1158     1.9607     1.4473 C.2     
  17 O17            2.7791     1.5740     2.5489 O.2     
  18 O18            2.3881     2.8999     0.8114 O.3     
  19 C19            2.9036    -0.2495    -2.5010 C.3     
  20 N20            2.2080     0.3850    -3.6234 N.am    
  21 C21            2.7020     0.2732    -4.8724 C.2     
  22 O22            3.7224    -0.3527    -5.0671 O.2     
  23 C23            1.9865     0.9259    -6.0269 C.3     
  24 C24            2.7503     0.6479    -7.3232 C.3     
  25 C25            2.0238     1.3106    -8.4953 C.3     
  26 N26            2.7572     1.0436    -9.7399 N.3     
  27 H27            0.5668     1.8147    -0.1139 H       
  28 H28           -0.9343     1.4646    -1.0040 H       
  29 H29           -0.9499     1.5345     0.7745 H       
  30 H30            0.5170    -0.4627     0.8658 H       
  31 H31           -1.9687    -0.7602    -0.8783 H       
  32 H32           -1.1388    -2.1074    -0.0630 H       
  33 H33           -1.9050    -0.8209     0.8995 H       
  34 H34            0.8976    -1.7300    -1.2793 H       
  35 H35            0.2479    -0.3324    -2.1699 H       
  36 H36            2.0095     1.1039    -1.0834 H       
  37 H37            2.3567    -0.3854     0.8981 H       
  38 H38            3.1153    -1.5899    -0.1705 H       
  39 H39            7.4634    -0.0684    -0.8757 H       
  40 H40            5.3133    -1.2495    -1.0444 H       
  41 H41            7.6266     2.7525     2.5872 H       
  42 H42            7.7448     4.2002     1.5367 H       
  43 H43            1.6513     3.2903     1.3009 H       
  44 H44            3.9122     0.1562    -2.4225 H       
  45 H45            2.9566    -1.3253    -2.6679 H       
  46 H46            1.3919     0.8857    -3.4677 H       
  47 H47            0.9778     0.5203    -6.1054 H       
  48 H48            1.9334     2.0018    -5.8601 H       
  49 H49            3.7589     1.0536    -7.2447 H       
  50 H50            2.8033    -0.4279    -7.4900 H       
  51 H51            1.0152     0.9049    -8.5738 H       
  52 H52            1.9708     2.3864    -8.3285 H       
  53 H53            2.8760     0.0521    -9.8840 H       
  54 H54            2.2971     1.4712   -10.5295 H       
@<TRIPOS>BOND
   1    1    2 1
   2    1   27 1
   3    1   28 1
   4    1   29 1
   5    2    3 1
   6    2    4 1
   7    2   30 1
   8    3   31 1
   9    3   32 1
  10    3   33 1
  11    4    5 1
  12    4   34 1
  13    4   35 1
  14    5    6 1
  15    5   19 1
  16    5   36 1
  17    6    7 1
  18    6   37 1
  19    6   38 1
  20    7    8 ar
  21    7   12 ar
  22    8    9 ar
  23    8   16 1
  24    9   10 ar
  25    9   15 1
  26   10   11 ar
  27   10   13 1
  28   11   12 ar
  29   11   39 1
  30   12   40 1
  31   13   14 1
  32   14   15 1
  33   14   41 1
  34   14   42 1
  35   16   17 2
  36   16   18 1
  37   18   43 1
  38   19   20 1
  39   19   44 1
  40   19   45 1
  41   20   21 am
  42   20   46 1
  43   21   22 2
  44   21   23 1
  45   23   24 1
  46   23   47 1
  47   23   48 1
  48   24   25 1
  49   24   49 1
  50   24   50 1
  51   25   26 1
  52   25   51 1
  53   25   52 1
  54   26   53 1
  55   26   54 1

#	End of record

