#	Name: ASD07301347
#	Creating user name:	WinNT
#	Creation time:	15. 06. 2019 21:11

#	Modifying user name:	WinNT
#	Modification time:	15. 06. 2019 21:11

#	Program:	/corina/corina34_cracker 3.40 0067  02.08.2006

@<TRIPOS>MOLECULE
ASD07301347
  39   42    0    0    0
SMALL
NO_CHARGES


@<TRIPOS>ATOM
   1 C1            -0.0168     1.4656     0.0600 C.2     
   2 C2             0.0021    -0.0040     0.0010 C.2     
   3 C3             1.2690    -0.6325    -0.0648 C.2     
   4 C4             2.3696     0.1607    -0.0686 C.2     
   5 N5             2.2533     1.5067    -0.0114 N.pl3   
   6 N6             1.1259     2.1138     0.0491 N.2     
   7 O7            -1.0321    -0.6550     0.0087 O.2     
   8 C8             3.4221     2.2754    -0.0184 C.ar    
   9 C9             3.3439     3.6577    -0.1150 C.ar    
  10 C10            4.5062     4.4166    -0.1211 C.ar    
  11 C11            5.7442     3.7898    -0.0305 C.ar    
  12 C12            5.8178     2.4139     0.0649 C.ar    
  13 C13            4.6624     1.6560     0.0771 C.ar    
  14 S14            4.4131     6.1718    -0.2440 S.3     
  15 N15           -3.4451     2.6964     0.2032 N.pl3   
  16 N16           -2.5029     1.6620     0.1364 N.2     
  17 C17           -1.3014     2.2018     0.1246 C.2     
  18 C18           -1.4511     3.6022     0.1839 C.2     
  19 C19           -2.7725     3.8767     0.2313 C.2     
  20 C20           -4.8373     2.5413     0.2303 C.ar    
  21 C21           -5.3968     1.2710     0.1903 C.ar    
  22 C22           -6.7695     1.1215     0.2171 C.ar    
  23 C23           -7.5866     2.2351     0.2837 C.ar    
  24 C24           -7.0325     3.5015     0.3232 C.ar    
  25 C25           -5.6603     3.6573     0.3030 C.ar    
  26 H26            1.3565    -1.7080    -0.1100 H       
  27 H27            3.3506    -0.2884    -0.1177 H       
  28 H28            2.3810     4.1417    -0.1855 H       
  29 H29            6.6490     4.3794    -0.0352 H       
  30 H30            6.7806     1.9295     0.1344 H       
  31 H31            4.7236     0.5807     0.1564 H       
  32 H32            4.3460     6.5621     1.0414 H       
  33 H33           -0.6507     4.3272     0.1905 H       
  34 H34           -3.2161     4.8601     0.2818 H       
  35 H35           -4.7591     0.4009     0.1379 H       
  36 H36           -7.2052     0.1338     0.1856 H       
  37 H37           -8.6598     2.1156     0.3046 H       
  38 H38           -7.6733     4.3693     0.3745 H       
  39 H39           -5.2280     4.6464     0.3391 H       
@<TRIPOS>BOND
   1    1    2 1
   2    1    6 2
   3    1   17 1
   4    2    3 1
   5    2    7 2
   6    3    4 2
   7    3   26 1
   8    4    5 1
   9    4   27 1
  10    5    6 1
  11    5    8 1
  12    8    9 ar
  13    8   13 ar
  14    9   10 ar
  15    9   28 1
  16   10   11 ar
  17   10   14 1
  18   11   12 ar
  19   11   29 1
  20   12   13 ar
  21   12   30 1
  22   13   31 1
  23   14   32 1
  24   15   16 1
  25   15   19 1
  26   15   20 1
  27   16   17 2
  28   17   18 1
  29   18   19 2
  30   18   33 1
  31   19   34 1
  32   20   21 ar
  33   20   25 ar
  34   21   22 ar
  35   21   35 1
  36   22   23 ar
  37   22   36 1
  38   23   24 ar
  39   23   37 1
  40   24   25 ar
  41   24   38 1
  42   25   39 1

#	End of record

