#	Name: ASD05430350
#	Creating user name:	WinNT
#	Creation time:	15. 06. 2019 21:00

#	Modifying user name:	WinNT
#	Modification time:	15. 06. 2019 21:00

#	Program:	/corina/corina34_cracker 3.40 0067  02.08.2006

@<TRIPOS>MOLECULE
ASD05430350
  55   59    0    0    0
SMALL
NO_CHARGES


@<TRIPOS>ATOM
   1 C1            -0.0842     1.6676     0.3775 C.ar    
   2 C2            -0.0348     0.3814     0.9140 C.ar    
   3 C3            -1.2086    -0.2789     1.2538 C.ar    
   4 C4            -2.4279     0.3337     1.0626 C.ar    
   5 C5            -2.4855     1.6243     0.5248 C.ar    
   6 C6            -1.3029     2.2910     0.1876 C.ar    
   7 C7            -4.9052     1.5328     0.1765 C.2     
   8 C8            -3.7856     2.2799     0.3194 C.2     
   9 N9            -7.0800     0.8604    -0.0260 N.am    
  10 C10           -6.2894     2.0065     0.1176 C.2     
  11 C11           -9.1657    -0.2251     0.6165 C.ar    
  12 C12           -8.5320    -0.7754     1.7150 C.ar    
  13 C13          -10.3710    -0.7435     0.1810 C.ar    
  14 C14          -10.9440    -1.8123     0.8438 C.ar    
  15 C15          -10.3102    -2.3642     1.9441 C.ar    
  16 C16           -9.1028    -1.8445     2.3791 C.ar    
  17 F17          -10.8696    -3.4088     2.5930 F       
  18 O18            1.0670     2.3107     0.0466 O.3     
  19 C19            0.9419     3.6259    -0.4980 C.3     
  20 C20            1.6335    -0.8577     2.2596 C.2     
  21 N21            1.2030    -0.2472     1.1103 N.pl3   
  22 C22            2.8718    -1.3262     2.0122 C.2     
  23 N23            3.1931    -1.0130     0.7483 N.2     
  24 C24            2.2016    -0.3666     0.1976 C.2     
  25 C25            3.7455    -2.0724     2.9872 C.3     
  26 C26           -8.5453     0.9447    -0.1029 C.3     
  27 C27           -8.9581     2.2584     0.5795 C.3     
  28 O28           -8.1982     3.3452     0.0481 O.3     
  29 N29           -6.7877     3.2059     0.1693 N.2     
  30 C30           -8.9910     0.9547    -1.5665 C.3     
  31 N31           -4.9888     0.1396     0.0468 N.am    
  32 C32           -6.2846    -0.2082    -0.0708 C.2     
  33 O33           -6.6785    -1.3511    -0.2037 O.2     
  34 H34           -1.1655    -1.2751     1.6686 H       
  35 H35           -3.3389    -0.1822     1.3275 H       
  36 H36           -1.3426     3.2873    -0.2274 H       
  37 H37           -3.8472     3.3575     0.2825 H       
  38 H38           -7.5902    -0.3698     2.0542 H       
  39 H39          -10.8653    -0.3128    -0.6773 H       
  40 H40          -11.8860    -2.2166     0.5038 H       
  41 H41           -8.6073    -2.2745     3.2370 H       
  42 H42            0.3551     3.5849    -1.4156 H       
  43 H43            0.4426     4.2721     0.2240 H       
  44 H44            1.9326     4.0239    -0.7177 H       
  45 H45            1.0867    -0.9427     3.1870 H       
  46 H46            2.1790     0.0097    -0.8145 H       
  47 H47            3.5552    -3.1422     2.9006 H       
  48 H48            4.7932    -1.8705     2.7645 H       
  49 H49            3.5201    -1.7444     4.0020 H       
  50 H50          -10.0187     2.4391     0.4048 H       
  51 H51           -8.7778     2.1813     1.6517 H       
  52 H52           -8.6579     0.0384    -2.0541 H       
  53 H53          -10.0781     1.0173    -1.6148 H       
  54 H54           -8.5546     1.8153    -2.0734 H       
  55 H55           -4.2369    -0.4733     0.0425 H       
@<TRIPOS>BOND
   1    1    2 ar
   2    1   18 1
   3    1    6 ar
   4    2    3 ar
   5    2   21 1
   6    3    4 ar
   7    3   34 1
   8    4    5 ar
   9    4   35 1
  10    5    6 ar
  11    5    8 1
  12    6   36 1
  13    7    8 2
  14    7   31 1
  15    7   10 1
  16    8   37 1
  17    9   10 1
  18    9   26 1
  19    9   32 am
  20   10   29 2
  21   11   12 ar
  22   11   13 ar
  23   11   26 1
  24   12   16 ar
  25   12   38 1
  26   13   14 ar
  27   13   39 1
  28   14   15 ar
  29   14   40 1
  30   15   16 ar
  31   15   17 1
  32   16   41 1
  33   18   19 1
  34   19   42 1
  35   19   43 1
  36   19   44 1
  37   20   21 1
  38   20   22 2
  39   20   45 1
  40   21   24 1
  41   22   23 1
  42   22   25 1
  43   23   24 2
  44   24   46 1
  45   25   47 1
  46   25   48 1
  47   25   49 1
  48   26   27 1
  49   26   30 1
  50   27   28 1
  51   27   50 1
  52   27   51 1
  53   28   29 1
  54   30   52 1
  55   30   53 1
  56   30   54 1
  57   31   32 am
  58   31   55 1
  59   32   33 2

#	End of record

