#	Name: ASD03330540
#	Creating user name:	WinNT
#	Creation time:	15. 06. 2019 20:37

#	Modifying user name:	WinNT
#	Modification time:	15. 06. 2019 20:37

#	Program:	/corina/corina34_cracker 3.40 0067  02.08.2006

@<TRIPOS>MOLECULE
ASD03330540
  61   63    0    0    0
SMALL
NO_CHARGES


@<TRIPOS>ATOM
   1 C1            -0.3217     1.1663     0.8585 C.2     
   2 N2            -0.3504    -0.1669     1.0925 N.pl3   
   3 C3             0.9836     1.5538     0.9007 C.2     
   4 N4             1.7316     0.4550     1.1412 N.2     
   5 C5             0.9385    -0.5845     1.2521 C.2     
   6 C6             1.3699    -1.9766     1.5082 C.ar    
   7 C7             1.4890     2.9259     0.7169 C.2     
   8 O8             0.7117     3.8369     0.5048 O.2     
   9 C9             3.3150     4.5351     0.6012 C.3     
  10 N10            2.8126     3.1711     0.7839 N.am    
  11 C11            3.4866     4.8196    -0.8923 C.3     
  12 C12            2.1176     4.8033    -1.5752 C.3     
  13 C13            4.1333     6.1936    -1.0787 C.3     
  14 C14            4.3806     3.7462    -1.5165 C.3     
  15 C15            4.6447     4.6778     1.2958 C.2     
  16 N16            5.1803     5.9006     1.4812 N.am    
  17 O17            5.2329     3.6924     1.6881 O.2     
  18 C18            6.5055     6.0351     2.0912 C.3     
  19 C19           -1.5602    -0.9905     1.1706 C.3     
  20 C20           -2.4701    -0.6619    -0.0170 C.3     
  21 C21           -3.3815     0.5079     0.3406 C.3     
  22 N22           -2.7017     1.4502     1.2318 N.3     
  23 C23           -1.5195     2.0386     0.5852 C.3     
  24 C24           -3.6239     2.4960     1.6945 C.3     
  25 C25            2.6201    -2.4106     1.0744 C.ar    
  26 C26            0.5270    -2.8557     2.1902 C.ar    
  27 C27            0.9278    -4.1554     2.4308 C.ar    
  28 C28            2.1633    -4.5943     1.9994 C.ar    
  29 C29            3.0191    -3.7233     1.3201 C.ar    
  30 C30            4.3006    -4.1797     0.8729 C.1     
  31 N31            5.3173    -4.5417     0.5182 N.1     
  32 H32            2.6047     5.2439     1.0268 H       
  33 H33            3.4325     2.4445     0.9530 H       
  34 H34            1.4807     5.5680    -1.1305 H       
  35 H35            2.2399     5.0060    -2.6392 H       
  36 H36            1.6569     3.8245    -1.4424 H       
  37 H37            5.0927     6.2167    -0.5619 H       
  38 H38            4.2883     6.3811    -2.1412 H       
  39 H39            3.4796     6.9618    -0.6658 H       
  40 H40            3.9199     2.7673    -1.3837 H       
  41 H41            4.5029     3.9489    -2.5805 H       
  42 H42            5.3560     3.7578    -1.0300 H       
  43 H43            4.6884     6.6917     1.2107 H       
  44 H44            7.2419     5.5151     1.4785 H       
  45 H45            6.7690     7.0906     2.1586 H       
  46 H46            6.4914     5.5996     3.0903 H       
  47 H47           -1.2857    -2.0449     1.1384 H       
  48 H48           -2.0857    -0.7784     2.1017 H       
  49 H49           -1.8588    -0.3948    -0.8790 H       
  50 H50           -3.0775    -1.5336    -0.2604 H       
  51 H51           -3.6736     1.0262    -0.5728 H       
  52 H52           -4.2746     0.1272     0.8362 H       
  53 H53           -1.3430     3.0363     0.9872 H       
  54 H54           -1.6862     2.1022    -0.4901 H       
  55 H55           -4.4511     2.0373     2.2361 H       
  56 H56           -3.0933     3.1822     2.3546 H       
  57 H57           -4.0114     3.0444     0.8359 H       
  58 H58            3.2775    -1.7332     0.5496 H       
  59 H59           -0.4409    -2.5187     2.5309 H       
  60 H60            0.2717    -4.8311     2.9593 H       
  61 H61            2.4707    -5.6118     2.1907 H       
@<TRIPOS>BOND
   1    1    2 1
   2    1    3 2
   3    1   23 1
   4    2   19 1
   5    2    5 1
   6    3    4 1
   7    3    7 1
   8    4    5 2
   9    5    6 1
  10    6   25 ar
  11    6   26 ar
  12    7    8 2
  13    7   10 am
  14    9   10 1
  15    9   11 1
  16    9   15 1
  17    9   32 1
  18   10   33 1
  19   11   12 1
  20   11   13 1
  21   11   14 1
  22   12   34 1
  23   12   35 1
  24   12   36 1
  25   13   37 1
  26   13   38 1
  27   13   39 1
  28   14   40 1
  29   14   41 1
  30   14   42 1
  31   15   16 am
  32   15   17 2
  33   16   18 1
  34   16   43 1
  35   18   44 1
  36   18   45 1
  37   18   46 1
  38   19   20 1
  39   19   47 1
  40   19   48 1
  41   20   21 1
  42   20   49 1
  43   20   50 1
  44   21   22 1
  45   21   51 1
  46   21   52 1
  47   22   23 1
  48   22   24 1
  49   23   53 1
  50   23   54 1
  51   24   55 1
  52   24   56 1
  53   24   57 1
  54   25   29 ar
  55   25   58 1
  56   26   27 ar
  57   26   59 1
  58   27   28 ar
  59   27   60 1
  60   28   29 ar
  61   28   61 1
  62   29   30 1
  63   30   31 3

#	End of record

