#	Name: ASD02500088
#	Creating user name:	WinNT
#	Creation time:	15. 06. 2019 20:22

#	Modifying user name:	WinNT
#	Modification time:	15. 06. 2019 20:22

#	Program:	/corina/corina34_cracker 3.40 0067  02.08.2006

@<TRIPOS>MOLECULE
ASD02500088
  49   52    0    0    0
SMALL
NO_CHARGES


@<TRIPOS>ATOM
   1 N1             0.3469     1.2441    -0.2040 N.am    
   2 N2            -2.1290    -6.2879    -3.1384 N.3     
   3 C3            -1.9709    -6.9276    -1.8255 C.3     
   4 C4            -0.6384    -6.4925    -1.2062 C.3     
   5 N5            -0.5876    -5.0227    -1.1920 N.am    
   6 C6            -0.8719    -4.3044    -2.4436 C.3     
   7 C7            -2.1952    -4.8256    -3.0142 C.3     
   8 C8            -0.2889    -4.3517    -0.0619 C.2     
   9 O9            -0.1540    -4.9547     0.9857 O.2     
  10 C10           -0.1260    -2.8889    -0.0956 C.ar    
  11 C11           -0.8191    -2.0815     0.8205 C.ar    
  12 C12           -0.6586    -0.7080     0.7806 C.ar    
  13 C13            0.1859    -0.1366    -0.1637 C.ar    
  14 C14            0.8715    -0.9423    -1.0706 C.ar    
  15 C15            0.7243    -2.2990    -1.0364 C.ar    
  16 S16            1.8651     1.8983    -0.3008 S.o2    
  17 C17            2.7234     1.4442     1.1696 C.ar    
  18 O18            2.5216     1.2321    -1.3706 O.2     
  19 O19            1.6985     3.3085    -0.2488 O.2     
  20 C20            2.2815     1.9147     2.4182 C.ar    
  21 C21            2.9882     1.5358     3.5866 C.ar    
  22 C22            4.1117     0.7009     3.4777 C.ar    
  23 C23            4.5095     0.2646     2.2507 C.ar    
  24 C24            3.8134     0.6320     1.1011 C.ar    
  25 N25            1.2111     2.7096     2.5166 N.ar    
  26 C26            0.7951     3.1514     3.6785 C.ar    
  27 C27            1.4440     2.8170     4.8653 C.ar    
  28 C28            2.5440     2.0080     4.8362 C.ar    
  29 Ar29          -3.7357    -6.9994    -4.0935 Du      
  30 O30           -1.6424    -2.6454     1.7396 O.3     
  31 H31           -0.4304     1.8239    -0.1794 H       
  32 H32           -2.7906    -6.6266    -1.1731 H       
  33 H33           -1.9798    -8.0109    -1.9453 H       
  34 H34           -0.5675    -6.8712    -0.1866 H       
  35 H35            0.1869    -6.8817    -1.8025 H       
  36 H36           -0.9554    -3.2365    -2.2421 H       
  37 H37           -0.0690    -4.4833    -3.1589 H       
  38 H38           -2.3667    -4.3846    -3.9961 H       
  39 H39           -3.0118    -4.5540    -2.3453 H       
  40 H40           -1.1889    -0.0808     1.4819 H       
  41 H41            1.5259    -0.4912    -1.8019 H       
  42 H42            1.2591    -2.9173    -1.7421 H       
  43 H43            4.6574     0.4067     4.3620 H       
  44 H44            5.3738    -0.3776     2.1679 H       
  45 H45            4.1486     0.2726     0.1394 H       
  46 H46           -0.0736     3.7920     3.7169 H       
  47 H47            1.0774     3.1970     5.8074 H       
  48 H48            3.0590     1.7385     5.7464 H       
  49 H49           -1.2059    -2.8716     2.5723 H       
@<TRIPOS>BOND
   1    1   13 1
   2    1   16 am
   3    1   31 1
   4    2    3 1
   5    2   29 1
   6    2    7 1
   7    3    4 1
   8    3   32 1
   9    3   33 1
  10    4    5 1
  11    4   34 1
  12    4   35 1
  13    5    6 1
  14    5    8 am
  15    6    7 1
  16    6   36 1
  17    6   37 1
  18    7   38 1
  19    7   39 1
  20    8    9 2
  21    8   10 1
  22   10   11 ar
  23   10   15 ar
  24   11   12 ar
  25   11   30 1
  26   12   13 ar
  27   12   40 1
  28   13   14 ar
  29   14   15 ar
  30   14   41 1
  31   15   42 1
  32   16   17 1
  33   16   18 2
  34   16   19 2
  35   17   20 ar
  36   17   24 ar
  37   20   21 ar
  38   20   25 ar
  39   21   22 ar
  40   21   28 ar
  41   22   23 ar
  42   22   43 1
  43   23   24 ar
  44   23   44 1
  45   24   45 1
  46   25   26 ar
  47   26   27 ar
  48   26   46 1
  49   27   28 ar
  50   27   47 1
  51   28   48 1
  52   30   49 1

#	End of record

