#	Name: ASD01911390
#	Creating user name:	WinNT
#	Creation time:	15. 06. 2019 19:57

#	Modifying user name:	WinNT
#	Modification time:	15. 06. 2019 19:57

#	Program:	/corina/corina34_cracker 3.40 0067  02.08.2006

@<TRIPOS>MOLECULE
ASD01911390
  37   38    0    0    0
SMALL
NO_CHARGES


@<TRIPOS>ATOM
   1 N1            -0.0169     1.3965     0.0097 N.2     
   2 N2             0.0021    -0.0041     0.0020 N.pl3   
   3 C3             1.2284     1.8226     0.0001 C.2     
   4 C4             2.0722     0.6950    -0.0140 C.2     
   5 C5             1.2909    -0.4070    -0.0125 C.2     
   6 C6             1.7727    -1.8348    -0.0247 C.3     
   7 C7             1.6661     3.2408     0.0036 C.ar    
   8 C8             0.7209     4.2635     0.0186 C.ar    
   9 C9            -1.1724    -0.8798     0.0093 C.3     
  10 C10           -1.5891    -1.1729    -1.4090 C.2     
  11 O11           -2.6495    -1.9606    -1.6477 O.3     
  12 O12           -0.9688    -0.6990    -2.3312 O.2     
  13 C13           -2.9933    -2.1997    -3.0380 C.3     
  14 C14            2.0692    -2.2853     1.4071 C.3     
  15 C15            1.1345     5.5829     0.0217 C.ar    
  16 C16            2.4860     5.8866     0.0094 C.ar    
  17 C17            3.4270     4.8732    -0.0056 C.ar    
  18 C18            3.0241     3.5532    -0.0025 C.ar    
  19 C19            2.9323     7.3260     0.0118 C.3     
  20 F20            0.2196     6.5769     0.0363 F       
  21 H21            3.1521     0.7089    -0.0248 H       
  22 H22            1.0021    -2.4746    -0.4547 H       
  23 H23            2.6806    -1.9067    -0.6236 H       
  24 H24           -0.3327     4.0267     0.0275 H       
  25 H25           -0.9266    -1.8130     0.5160 H       
  26 H26           -1.9905    -0.3861     0.5337 H       
  27 H27           -3.8665    -2.8501    -3.0897 H       
  28 H28           -3.2177    -1.2508    -3.5252 H       
  29 H29           -2.1539    -2.6777    -3.5429 H       
  30 H30            2.8398    -1.6455     1.8371 H       
  31 H31            1.1613    -2.2134     2.0060 H       
  32 H32            2.4177    -3.3181     1.3982 H       
  33 H33            4.4795     5.1153    -0.0151 H       
  34 H34            3.7605     2.7632    -0.0142 H       
  35 H35            3.0504     7.6681     1.0400 H       
  36 H36            3.8847     7.4120    -0.5114 H       
  37 H37            2.1847     7.9391    -0.4915 H       
@<TRIPOS>BOND
   1    1    2 1
   2    1    3 2
   3    2    9 1
   4    2    5 1
   5    3    4 1
   6    3    7 1
   7    4    5 2
   8    4   21 1
   9    5    6 1
  10    6   14 1
  11    6   22 1
  12    6   23 1
  13    7    8 ar
  14    7   18 ar
  15    8   15 ar
  16    8   24 1
  17    9   10 1
  18    9   25 1
  19    9   26 1
  20   10   11 1
  21   10   12 2
  22   11   13 1
  23   13   27 1
  24   13   28 1
  25   13   29 1
  26   14   30 1
  27   14   31 1
  28   14   32 1
  29   15   16 ar
  30   15   20 1
  31   16   17 ar
  32   16   19 1
  33   17   18 ar
  34   17   33 1
  35   18   34 1
  36   19   35 1
  37   19   36 1
  38   19   37 1

#	End of record

