#	Name: ASD01901333
#	Creating user name:	WinNT
#	Creation time:	15. 06. 2019 19:53

#	Modifying user name:	WinNT
#	Modification time:	15. 06. 2019 19:53

#	Program:	/corina/corina34_cracker 3.40 0067  02.08.2006

@<TRIPOS>MOLECULE
ASD01901333
  42   45    0    0    0
SMALL
NO_CHARGES


@<TRIPOS>ATOM
   1 C1            -0.0168     1.3910     0.0097 C.ar    
   2 C2             1.1713     2.0975     0.0021 C.ar    
   3 C3             2.3802     1.4236    -0.0135 C.ar    
   4 C4             2.4052     0.0341    -0.0216 C.ar    
   5 C5             1.2196    -0.6804    -0.0137 C.ar    
   6 C6             0.0021    -0.0041     0.0020 C.ar    
   7 C7            -1.2719    -0.7654     0.0106 C.2     
   8 N8            -2.8592    -2.0727    -1.1497 N.2     
   9 C9            -1.7336    -1.4016    -1.1622 C.2     
  10 C10           -2.0118    -0.8654     1.1554 C.2     
  11 N11           -3.1776    -1.5724     1.1286 N.pl3   
  12 C12           -3.5948    -2.1712    -0.0322 C.2     
  13 C13           -4.1162    -1.8483     2.0860 C.2     
  14 C14           -5.0729    -2.5984     1.4991 C.2     
  15 N15           -4.7432    -2.7842     0.2175 N.2     
  16 C16           -6.3072    -3.1361     2.1761 C.3     
  17 O17           -6.3145    -2.7295     3.5460 O.3     
  18 C18           -7.3674    -3.1339     4.3041 C.ar    
  19 C19           -8.3700    -3.9110     3.7425 C.ar    
  20 C20           -7.4385    -2.7751     5.6424 C.ar    
  21 C21           -8.5099    -3.1875     6.4108 C.ar    
  22 C22           -9.5105    -3.9575     5.8474 C.ar    
  23 C23           -9.4393    -4.3208     4.5152 C.ar    
  24 F24            3.5388     2.1183    -0.0213 F       
  25 F25           -1.1955     2.0510     0.0301 F       
  26 O26            3.5952    -0.6240    -0.0379 O.3     
  27 C27            3.5466    -2.0522    -0.0455 C.3     
  28 H28            1.1563     3.1774     0.0081 H       
  29 H29            1.2386    -1.7602    -0.0204 H       
  30 H30           -1.1572    -1.3346    -2.0731 H       
  31 H31           -1.6783    -0.3920     2.0671 H       
  32 H32           -4.0951    -1.5268     3.1168 H       
  33 H33           -7.1944    -2.7466     1.6768 H       
  34 H34           -6.3073    -4.2247     2.1203 H       
  35 H35           -8.3148    -4.1951     2.7020 H       
  36 H36           -6.6568    -2.1742     6.0831 H       
  37 H37           -8.5657    -2.9084     7.4526 H       
  38 H38          -10.3469    -4.2795     6.4500 H       
  39 H39          -10.2201    -4.9258     4.0784 H       
  40 H40            4.5613    -2.4502    -0.0584 H       
  41 H41            3.0301    -2.4029     0.8480 H       
  42 H42            3.0114    -2.3928    -0.9319 H       
@<TRIPOS>BOND
   1    1    6 ar
   2    1    2 ar
   3    1   25 1
   4    2    3 ar
   5    2   28 1
   6    3    4 ar
   7    3   24 1
   8    4    5 ar
   9    4   26 1
  10    5    6 ar
  11    5   29 1
  12    6    7 1
  13    7   10 2
  14    7    9 1
  15    8    9 2
  16    8   12 1
  17    9   30 1
  18   10   11 1
  19   10   31 1
  20   11   13 1
  21   11   12 1
  22   12   15 2
  23   13   14 2
  24   13   32 1
  25   14   15 1
  26   14   16 1
  27   16   17 1
  28   16   33 1
  29   16   34 1
  30   17   18 1
  31   18   20 ar
  32   18   19 ar
  33   19   23 ar
  34   19   35 1
  35   20   21 ar
  36   20   36 1
  37   21   22 ar
  38   21   37 1
  39   22   23 ar
  40   22   38 1
  41   23   39 1
  42   26   27 1
  43   27   40 1
  44   27   41 1
  45   27   42 1

#	End of record

