#	Name: ASD02039217
#	Creating user name:	WinNT
#	Creation time:	15. 06. 2019 20:17

#	Modifying user name:	WinNT
#	Modification time:	15. 06. 2019 20:17

#	Program:	/corina/corina34_cracker 3.40 0067  02.08.2006

@<TRIPOS>MOLECULE
ASD02039217
  33   35    0    0    0
SMALL
NO_CHARGES


@<TRIPOS>ATOM
   1 N1             0.0021     1.2625     0.3692 N.2     
   2 C2             0.0063    -0.0135     0.0889 C.2     
   3 N3             1.2922    -0.3755    -0.1077 N.2     
   4 C4             1.9960     0.7158     0.0676 C.2     
   5 O5             1.1352     1.6953     0.3609 O.3     
   6 C6             3.4938     0.8426    -0.0406 C.3     
   7 N7            -1.1051    -0.8435     0.0088 N.pl3   
   8 C8            -2.3900    -0.3050     0.1298 C.ar    
   9 C9            -2.6365     1.0032    -0.2675 C.ar    
  10 C10           -3.9060     1.5330    -0.1471 C.ar    
  11 C11           -4.9330     0.7624     0.3692 C.ar    
  12 C12           -4.6907    -0.5420     0.7661 C.ar    
  13 C13           -3.4230    -1.0789     0.6419 C.ar    
  14 Cl14          -6.5274     1.4322     0.5200 Cl      
  15 C15            3.8675     1.1878    -1.4591 C.ar    
  16 C16            4.1129     0.1797    -2.3730 C.ar    
  17 C17            3.9590     2.5121    -1.8459 C.ar    
  18 C18            4.3010     2.8312    -3.1457 C.ar    
  19 C19            4.5532     1.8215    -4.0632 C.ar    
  20 C20            4.4556     0.4935    -3.6739 C.ar    
  21 Cl21          -5.9814    -1.5057     1.4133 Cl      
  22 O22            4.8894     2.1328    -5.3426 O.3     
  23 H23            3.8411     1.6298     0.6285 H       
  24 H24            3.9595    -0.1027     0.2381 H       
  25 H25           -0.9897    -1.7964    -0.1311 H       
  26 H26           -1.8355     1.6056    -0.6699 H       
  27 H27           -4.0976     2.5500    -0.4560 H       
  28 H28           -3.2340    -2.0962     0.9515 H       
  29 H29            4.0368    -0.8540    -2.0695 H       
  30 H30            3.7626     3.2977    -1.1313 H       
  31 H31            4.3716     3.8657    -3.4476 H       
  32 H32            4.6519    -0.2943    -4.3862 H       
  33 H33            5.8406     2.2306    -5.4866 H       
@<TRIPOS>BOND
   1    1    2 2
   2    1    5 1
   3    2    3 1
   4    2    7 1
   5    3    4 2
   6    4    5 1
   7    4    6 1
   8    6   15 1
   9    6   23 1
  10    6   24 1
  11    7    8 1
  12    7   25 1
  13    8    9 ar
  14    8   13 ar
  15    9   10 ar
  16    9   26 1
  17   10   11 ar
  18   10   27 1
  19   11   12 ar
  20   11   14 1
  21   12   13 ar
  22   12   21 1
  23   13   28 1
  24   15   17 ar
  25   15   16 ar
  26   16   20 ar
  27   16   29 1
  28   17   18 ar
  29   17   30 1
  30   18   19 ar
  31   18   31 1
  32   19   20 ar
  33   19   22 1
  34   20   32 1
  35   22   33 1

#	End of record

