#	Name: ASD01901193
#	Creating user name:	WinNT
#	Creation time:	15. 06. 2019 19:53

#	Modifying user name:	WinNT
#	Modification time:	15. 06. 2019 19:53

#	Program:	/corina/corina34_cracker 3.40 0067  02.08.2006

@<TRIPOS>MOLECULE
ASD01901193
  51   54    0    0    0
SMALL
NO_CHARGES


@<TRIPOS>ATOM
   1 C1             0.2149     1.5466    -1.9368 C.ar    
   2 C2             0.2610     0.1891    -2.1758 C.ar    
   3 C3             1.4796    -0.4506    -2.3199 C.ar    
   4 C4             2.6600     0.2654    -2.2256 C.ar    
   5 C5             2.6297     1.6234    -1.9865 C.ar    
   6 C6             1.4028     2.2763    -1.8403 C.ar    
   7 C7             1.3630     3.6862    -1.5928 C.1     
   8 C8             1.3305     4.8421    -1.3900 C.1     
   9 C9             1.2907     6.2519    -1.1425 C.ar    
  10 C10            2.4800     6.9801    -1.0463 C.ar    
  11 C11            2.4379     8.3387    -0.8077 C.ar    
  12 C12            1.2137     8.9836    -0.6629 C.ar    
  13 C13            0.0281     8.2620    -0.7581 C.ar    
  14 C14            0.0624     6.9043    -1.0023 C.ar    
  15 N15            1.1748    10.3643    -0.4201 N.am    
  16 C16            1.1265    11.2188    -1.4584 C.2     
  17 C17            1.1849    12.7057    -1.2137 C.3     
  18 C18            0.4697    13.0276     0.1005 C.3     
  19 N19            0.9123    12.0956     1.1393 N.am    
  20 C20            1.1808    10.8139     0.8459 C.2     
  21 O21            1.0365    10.7934    -2.5902 O.2     
  22 O22            1.4402    10.0420     1.7481 O.2     
  23 C23            0.8081    14.4589     0.5218 C.3     
  24 C24           -1.0199    12.8987    -0.0881 C.ar    
  25 C25           -1.7623    12.0681     0.7371 C.ar    
  26 C26           -3.1318    11.9808     0.5264 C.ar    
  27 C27           -3.7051    12.7213    -0.4936 C.ar    
  28 N28           -2.9656    13.5005    -1.2579 N.ar    
  29 C29           -1.6633    13.6115    -1.0819 C.ar    
  30 F30           -1.1585     8.8924    -0.6169 F       
  31 F31            3.5869     9.0432    -0.7141 F       
  32 C32            1.0589    12.5678     2.5183 C.3     
  33 F33           -3.8949    11.1837     1.3059 F       
  34 H34           -0.7370     2.0452    -1.8290 H       
  35 H35           -0.6562    -0.3762    -2.2502 H       
  36 H36            1.5096    -1.5139    -2.5065 H       
  37 H37            3.6075    -0.2405    -2.3391 H       
  38 H38            3.5517     2.1808    -1.9128 H       
  39 H39            3.4307     6.4801    -1.1582 H       
  40 H40           -0.8585     6.3456    -1.0808 H       
  41 H41            2.2255    13.0236    -1.1494 H       
  42 H42            0.6932    13.2293    -2.0336 H       
  43 H43            1.8855    14.5523     0.6587 H       
  44 H44            0.4786    15.1528    -0.2515 H       
  45 H45            0.3014    14.6914     1.4585 H       
  46 H46           -1.2868    11.5024     1.5246 H       
  47 H47           -4.7695    12.6595    -0.6653 H       
  48 H48           -1.0919    14.2641    -1.7253 H       
  49 H49            0.1174    12.4326     3.0506 H       
  50 H50            1.8430    11.9975     3.0163 H       
  51 H51            1.3253    13.6248     2.5141 H       
@<TRIPOS>BOND
   1    1    2 ar
   2    1    6 ar
   3    1   34 1
   4    2    3 ar
   5    2   35 1
   6    3    4 ar
   7    3   36 1
   8    4    5 ar
   9    4   37 1
  10    5    6 ar
  11    5   38 1
  12    6    7 1
  13    7    8 3
  14    8    9 1
  15    9   10 ar
  16    9   14 ar
  17   10   11 ar
  18   10   39 1
  19   11   12 ar
  20   11   31 1
  21   12   13 ar
  22   12   15 1
  23   13   14 ar
  24   13   30 1
  25   14   40 1
  26   15   16 am
  27   15   20 am
  28   16   17 1
  29   16   21 2
  30   17   18 1
  31   17   41 1
  32   17   42 1
  33   18   19 1
  34   18   23 1
  35   18   24 1
  36   19   20 am
  37   19   32 1
  38   20   22 2
  39   23   43 1
  40   23   44 1
  41   23   45 1
  42   24   25 ar
  43   24   29 ar
  44   25   26 ar
  45   25   46 1
  46   26   27 ar
  47   26   33 1
  48   27   28 ar
  49   27   47 1
  50   28   29 ar
  51   29   48 1
  52   32   49 1
  53   32   50 1
  54   32   51 1

#	End of record

