#	Name: ASD07300256
#	Creating user name:	WinNT
#	Creation time:	15. 06. 2019 21:09

#	Modifying user name:	WinNT
#	Modification time:	15. 06. 2019 21:09

#	Program:	/corina/corina34_cracker 3.40 0067  02.08.2006

@<TRIPOS>MOLECULE
ASD07300256
  56   60    0    0    0
SMALL
NO_CHARGES


@<TRIPOS>ATOM
   1 C1             1.2549     2.7974     0.3308 C.2     
   2 C2             1.5228     1.3359     0.0793 C.3     
   3 O3             2.1579     3.5290     0.6613 O.2     
   4 O4             0.0142     3.2876     0.1823 O.3     
   5 C5            -0.1703     4.7043     0.4413 C.3     
   6 C6            -3.4044     6.6770     0.1992 C.ar    
   7 C7            -2.0558     6.3729     0.4089 C.ar    
   8 C8            -1.6161     5.0704     0.2254 C.ar    
   9 C9            -2.5428     4.1136    -0.1628 C.ar    
  10 C10           -3.8606     4.4847    -0.3522 C.ar    
  11 N11           -4.2521     5.7311    -0.1703 N.ar    
  12 C12           -2.3479     8.5384     0.7929 C.2     
  13 N13           -3.5486     8.0371     0.4483 N.am    
  14 N14           -1.4265     7.5562     0.7837 N.am    
  15 O15           -2.1290     9.7017     1.0744 O.2     
  16 C16           -4.7443     8.7647     0.3561 C.ar    
  17 C17           -4.7524    10.1252     0.6328 C.ar    
  18 C18           -5.9296    10.8410     0.5414 C.ar    
  19 C19           -7.1042    10.2010     0.1732 C.ar    
  20 C20           -7.0967     8.8413    -0.1030 C.ar    
  21 C21           -5.9189     8.1257    -0.0174 C.ar    
  22 O22           -8.2630    10.9063     0.0833 O.3     
  23 C23           -9.3145    13.1726    -2.4007 C.ar    
  24 C24           -8.1088    12.6670    -2.9189 C.ar    
  25 C25           -7.6557    13.1322    -4.1562 C.ar    
  26 C26           -8.4200    14.0754    -4.8186 C.ar    
  27 C27           -9.5971    14.5261    -4.2445 C.ar    
  28 N28          -10.0068    14.0744    -3.0763 N.ar    
  29 C29           -8.4410    11.7003    -0.9972 C.2     
  30 N30           -9.4984    12.5429    -1.1849 N.pl3   
  31 N31           -7.6283    11.7706    -2.0195 N.2     
  32 C32          -10.6217    12.7428    -0.2660 C.3     
  33 C33           -0.0052     7.7089     1.1043 C.3     
  34 C34            0.7710     8.0511    -0.1690 C.3     
  35 H35            2.5797     1.1266     0.2442 H       
  36 H36            0.9224     0.7338     0.7613 H       
  37 H37            1.2600     1.0902    -0.9496 H       
  38 H38            0.1105     4.9250     1.4712 H       
  39 H39            0.4563     5.2825    -0.2379 H       
  40 H40           -2.2373     3.0890    -0.3157 H       
  41 H41           -4.5829     3.7408    -0.6544 H       
  42 H42           -3.8382    10.6234     0.9197 H       
  43 H43           -5.9360    11.8993     0.7569 H       
  44 H44           -8.0114     8.3434    -0.3889 H       
  45 H45           -5.9122     7.0683    -0.2371 H       
  46 H46           -6.7340    12.7656    -4.5833 H       
  47 H47           -8.1011    14.4581    -5.7768 H       
  48 H48          -10.1910    15.2630    -4.7647 H       
  49 H49          -11.4179    12.0384    -0.5069 H       
  50 H50          -10.2874    12.5769     0.7581 H       
  51 H51          -10.9957    13.7618    -0.3655 H       
  52 H52            0.1190     8.5108     1.8321 H       
  53 H53            0.3752     6.7768     1.5222 H       
  54 H54            0.3906     8.9832    -0.5870 H       
  55 H55            1.8285     8.1647     0.0695 H       
  56 H56            0.6468     7.2492    -0.8968 H       
@<TRIPOS>BOND
   1    1    2 1
   2    1    3 2
   3    1    4 1
   4    2   35 1
   5    2   36 1
   6    2   37 1
   7    4    5 1
   8    5    8 1
   9    5   38 1
  10    5   39 1
  11    6    7 ar
  12    6   11 ar
  13    6   13 1
  14    7    8 ar
  15    7   14 1
  16    8    9 ar
  17    9   10 ar
  18    9   40 1
  19   10   11 ar
  20   10   41 1
  21   12   13 am
  22   12   14 am
  23   12   15 2
  24   13   16 1
  25   14   33 1
  26   16   17 ar
  27   16   21 ar
  28   17   18 ar
  29   17   42 1
  30   18   19 ar
  31   18   43 1
  32   19   20 ar
  33   19   22 1
  34   20   21 ar
  35   20   44 1
  36   21   45 1
  37   22   29 1
  38   23   24 ar
  39   23   28 ar
  40   23   30 1
  41   24   25 ar
  42   24   31 1
  43   25   26 ar
  44   25   46 1
  45   26   27 ar
  46   26   47 1
  47   27   28 ar
  48   27   48 1
  49   29   30 1
  50   29   31 2
  51   30   32 1
  52   32   49 1
  53   32   50 1
  54   32   51 1
  55   33   34 1
  56   33   52 1
  57   33   53 1
  58   34   54 1
  59   34   55 1
  60   34   56 1

#	End of record

