#	Name: ASD01811487
#	Creating user name:	WinNT
#	Creation time:	15. 06. 2019 19:26

#	Modifying user name:	WinNT
#	Modification time:	15. 06. 2019 19:26

#	Program:	/corina/corina34_cracker 3.40 0067  02.08.2006

@<TRIPOS>MOLECULE
ASD01811487
  72   77    0    0    0
SMALL
NO_CHARGES


@<TRIPOS>ATOM
   1 C1             0.2885     1.3650     1.0086 C.3     
   2 C2             0.2342    -0.1226     0.7634 C.2     
   3 C3             1.3099    -0.8802     0.4489 C.2     
   4 C4             2.7140    -0.3461     0.3073 C.3     
   5 C5             2.6492     1.1751     0.1242 C.3     
   6 N6             1.7110     1.7402     1.1057 N.am    
   7 C7            -0.3977    -2.2031     0.5091 C.2     
   8 N8            -0.8470    -0.9473     0.8074 N.pl3   
   9 N9             0.9000    -2.1405     0.2967 N.2     
  10 C10            2.1403     2.5802     2.0683 C.2     
  11 O11            3.3163     2.8790     2.1339 O.2     
  12 O12            1.2661     3.0882     2.9574 O.3     
  13 C13           -1.2283    -3.4251     0.4376 C.ar    
  14 C14           -0.6743    -4.6219    -0.0217 C.ar    
  15 C15           -1.4481    -5.7634    -0.0890 C.ar    
  16 C16           -2.7735    -5.7303     0.2971 C.ar    
  17 C17           -3.3399    -4.5402     0.7582 C.ar    
  18 C18           -2.5629    -3.3858     0.8336 C.ar    
  19 C19            0.7712    -4.6674    -0.4452 C.3     
  20 C20            1.6559    -5.5254     0.4747 C.3     
  21 C21            2.3579    -6.0263    -0.7985 C.3     
  22 C22            1.0572    -5.6978    -1.5503 C.3     
  23 C23           -4.7596    -4.5061     1.1704 C.2     
  24 O24           -5.4200    -3.5012     0.9928 O.2     
  25 N25           -5.3213    -5.5892     1.7429 N.am    
  26 C26           -4.5089    -6.7689     2.0703 C.3     
  27 C27           -4.7146    -7.1143     3.5485 C.3     
  28 C28           -6.2101    -7.2846     3.8252 C.3     
  29 C29           -6.9380    -5.9710     3.5303 C.3     
  30 C30           -6.7564    -5.6104     2.0570 C.3     
  31 F31           -6.7235    -8.2959     3.0061 F       
  32 C32           -6.4140    -7.6579     5.2709 C.ar    
  33 C33           -7.6327    -8.1646     5.6860 C.ar    
  34 C34           -7.8262    -8.5084     7.0079 C.ar    
  35 C35           -6.7884    -8.3444     7.9276 C.ar    
  36 C36           -5.5609    -7.8330     7.5017 C.ar    
  37 C37           -5.3797    -7.4978     6.1759 C.ar    
  38 C38           -6.9822    -8.6987     9.3015 C.1     
  39 N39           -7.1360    -8.9798    10.3914 N.1     
  40 C40            1.7988     3.9862     3.9664 C.3     
  41 H41           -0.1793     1.8951     0.1791 H       
  42 H42           -0.2233     1.6064     1.9402 H       
  43 H43            3.2867    -0.5820     1.2042 H       
  44 H44            3.1909    -0.7986    -0.5622 H       
  45 H45            3.6396     1.6031     0.2789 H       
  46 H46            2.3050     1.4063    -0.8838 H       
  47 H47           -1.7605    -0.6930     1.0114 H       
  48 H48           -1.0149    -6.6862    -0.4457 H       
  49 H49           -3.3733    -6.6267     0.2419 H       
  50 H50           -2.9949    -2.4638     1.1937 H       
  51 H51            1.1835    -3.6795    -0.6502 H       
  52 H52            2.3027    -4.9402     1.1284 H       
  53 H53            1.1078    -6.3035     1.0060 H       
  54 H54            3.2047    -5.4104    -1.1013 H       
  55 H55            2.5932    -7.0904    -0.7775 H       
  56 H56            0.3454    -6.5231    -1.5726 H       
  57 H57            1.2206    -5.2519    -2.5314 H       
  58 H58           -4.8206    -7.6104     1.4516 H       
  59 H59           -3.4567    -6.5496     1.8893 H       
  60 H60           -4.1936    -8.0431     3.7810 H       
  61 H61           -4.3192    -6.3098     4.1686 H       
  62 H62           -7.9994    -6.0860     3.7498 H       
  63 H63           -6.5216    -5.1772     4.1505 H       
  64 H64           -7.1866    -4.6271     1.8672 H       
  65 H65           -7.2551    -6.3556     1.4372 H       
  66 H66           -8.4345    -8.2908     4.9736 H       
  67 H67           -8.7782    -8.9031     7.3308 H       
  68 H68           -4.7541    -7.7036     8.2079 H       
  69 H69           -4.4295    -7.1059     5.8443 H       
  70 H70            0.9911     4.3223     4.6166 H       
  71 H71            2.5486     3.4624     4.5594 H       
  72 H72            2.2567     4.8479     3.4807 H       
@<TRIPOS>BOND
   1    1    2 1
   2    1    6 1
   3    1   41 1
   4    1   42 1
   5    2    3 2
   6    2    8 1
   7    3    4 1
   8    3    9 1
   9    4    5 1
  10    4   43 1
  11    4   44 1
  12    5    6 1
  13    5   45 1
  14    5   46 1
  15    6   10 am
  16    7    8 1
  17    7    9 2
  18    7   13 1
  19    8   47 1
  20   10   11 2
  21   10   12 1
  22   12   40 1
  23   13   14 ar
  24   13   18 ar
  25   14   15 ar
  26   14   19 1
  27   15   16 ar
  28   15   48 1
  29   16   17 ar
  30   16   49 1
  31   17   18 ar
  32   17   23 1
  33   18   50 1
  34   19   20 1
  35   19   22 1
  36   19   51 1
  37   20   21 1
  38   20   52 1
  39   20   53 1
  40   21   22 1
  41   21   54 1
  42   21   55 1
  43   22   56 1
  44   22   57 1
  45   23   24 2
  46   23   25 am
  47   25   26 1
  48   25   30 1
  49   26   27 1
  50   26   58 1
  51   26   59 1
  52   27   28 1
  53   27   60 1
  54   27   61 1
  55   28   29 1
  56   28   31 1
  57   28   32 1
  58   29   30 1
  59   29   62 1
  60   29   63 1
  61   30   64 1
  62   30   65 1
  63   32   33 ar
  64   32   37 ar
  65   33   34 ar
  66   33   66 1
  67   34   35 ar
  68   34   67 1
  69   35   36 ar
  70   35   38 1
  71   36   37 ar
  72   36   68 1
  73   37   69 1
  74   38   39 3
  75   40   70 1
  76   40   71 1
  77   40   72 1

#	End of record

