#	Name: ASD05740048
#	Creating user name:	WinNT
#	Creation time:	15. 06. 2019 21:02

#	Modifying user name:	WinNT
#	Modification time:	15. 06. 2019 21:02

#	Program:	/corina/corina34_cracker 3.40 0067  02.08.2006

@<TRIPOS>MOLECULE
ASD05740048
  48   51    0    0    0
SMALL
NO_CHARGES


@<TRIPOS>ATOM
   1 S1            -0.0455     1.7714    -0.1848 S.3     
   2 N2             2.0922    -4.2195     0.5068 N.ar    
   3 C3             0.9294    -4.8452     0.3808 C.ar    
   4 C4             2.2028    -2.9128     0.3834 C.ar    
   5 C5             1.0740    -2.1374     0.1099 C.ar    
   6 C6            -0.1780    -2.7709    -0.0346 C.ar    
   7 C7            -0.2389    -4.1493     0.1072 C.ar    
   8 C8             1.1586    -0.6814    -0.0272 C.2     
   9 C9            -0.0204     0.0169    -0.0239 C.2     
  10 C10           -1.2633    -0.7545     0.1195 C.2     
  11 O11           -1.2789    -2.0378    -0.3079 O.3     
  12 C12           -0.8408     2.0157    -1.7380 C.2     
  13 C13           -1.1630     1.0029    -2.5497 C.2     
  14 O14           -2.2558    -0.2501     0.6120 O.2     
  15 O15            0.8819    -6.1933     0.5218 O.3     
  16 C16            2.0395    -6.8464     0.7884 C.2     
  17 C17           -1.1871     3.2753    -2.2119 C.2     
  18 C18           -1.7903     3.2770    -3.4092 C.2     
  19 S19           -1.9383     1.6270    -3.9993 S.3     
  20 N20           -2.2289     4.4156    -4.0869 N.am    
  21 S21           -1.9196     4.5869    -5.7047 S.o2    
  22 O22           -2.4801     5.8497    -6.0368 O.2     
  23 O23           -0.5231     4.3517    -5.8213 O.2     
  24 N24            3.1961    -6.2800     0.9256 N.2     
  25 S25            2.1837    -8.5369     0.9994 S.3     
  26 C26            3.9159    -8.3657     1.2713 C.2     
  27 C27            4.2219    -7.0701     1.1842 C.2     
  28 C28           -2.8584     3.2476    -6.4893 C.3     
  29 C29           -2.6517     3.2995    -8.0044 C.3     
  30 C30            2.4859     0.0187    -0.1656 C.3     
  31 C31            3.0657     0.2918     1.2237 C.3     
  32 H32            3.1677    -2.4405     0.4936 H       
  33 H33           -1.1789    -4.6713     0.0061 H       
  34 H34           -0.9748    -0.0409    -2.3460 H       
  35 H35           -0.9866     4.1812    -1.6592 H       
  36 H36           -2.7149     5.1066    -3.6102 H       
  37 H37            4.6083    -9.1687     1.4763 H       
  38 H38            5.2276    -6.6979     1.3129 H       
  39 H39           -2.5100     2.2878    -6.1078 H       
  40 H40           -3.9180     3.3656    -6.2629 H       
  41 H41           -3.0001     4.2593    -8.3859 H       
  42 H42           -1.5920     3.1815    -8.2308 H       
  43 H43           -3.2158     2.4948    -8.4758 H       
  44 H44            3.1731    -0.6132    -0.7282 H       
  45 H45            2.3457     0.9624    -0.6927 H       
  46 H46            2.3406     0.8490     1.8169 H       
  47 H47            3.2883    -0.6543     1.7170 H       
  48 H48            3.9812     0.8754     1.1271 H       
@<TRIPOS>BOND
   1    1    9 1
   2    1   12 1
   3    2    3 ar
   4    2    4 ar
   5    3   15 1
   6    3    7 ar
   7    4    5 ar
   8    4   32 1
   9    5    6 ar
  10    5    8 1
  11    6    7 ar
  12    6   11 1
  13    7   33 1
  14    8    9 2
  15    8   30 1
  16    9   10 1
  17   10   11 1
  18   10   14 2
  19   12   13 2
  20   12   17 1
  21   13   19 1
  22   13   34 1
  23   15   16 1
  24   16   25 1
  25   16   24 2
  26   17   18 2
  27   17   35 1
  28   18   19 1
  29   18   20 1
  30   20   21 am
  31   20   36 1
  32   21   22 2
  33   21   23 2
  34   21   28 1
  35   24   27 1
  36   25   26 1
  37   26   27 2
  38   26   37 1
  39   27   38 1
  40   28   29 1
  41   28   39 1
  42   28   40 1
  43   29   41 1
  44   29   42 1
  45   29   43 1
  46   30   31 1
  47   30   44 1
  48   30   45 1
  49   31   46 1
  50   31   47 1
  51   31   48 1

#	End of record

