#	Name: ASD05740138
#	Creating user name:	WinNT
#	Creation time:	15. 06. 2019 21:02

#	Modifying user name:	WinNT
#	Modification time:	15. 06. 2019 21:02

#	Program:	/corina/corina34_cracker 3.40 0067  02.08.2006

@<TRIPOS>MOLECULE
ASD05740138
  53   54    0    0    0
SMALL
NO_CHARGES


@<TRIPOS>ATOM
   1 C1            -0.0189     1.5389     0.0105 C.3     
   2 C2            -2.8988    -1.8554     0.9785 C.3     
   3 C3            -2.0187    -4.0697     0.1356 C.2     
   4 C4            -1.1904    -4.8082    -0.6964 C.2     
   5 C5            -2.0013    -2.6643     0.0779 C.2     
   6 C6            -1.1642    -2.0395    -0.8016 C.2     
   7 C7            -0.3396    -2.8133    -1.6288 C.2     
   8 O8            -0.3664    -4.1510    -1.5634 O.3     
   9 C9            -1.1282    -0.5351    -0.8820 C.3     
  10 C10            0.0021    -0.0041     0.0020 C.3     
  11 N11            1.3058    -0.4202    -0.5467 N.3     
  12 O12            0.4107    -2.2629    -2.4175 O.2     
  13 C13            1.4877     1.9090    -0.0019 C.3     
  14 C14            2.0771     0.7912    -0.8979 C.3     
  15 N15            1.6991     3.2287    -0.6019 N.am    
  16 S16            2.9903     4.1539    -0.1339 S.o2    
  17 O17            2.9361     5.3415    -0.9122 O.2     
  18 O18            2.9888     4.1552     1.2871 O.2     
  19 C19           -1.3258    -6.1795    -0.5182 C.2     
  20 C20           -2.2143    -6.5622     0.4075 C.2     
  21 S21           -2.9728    -5.1576     1.1385 S.3     
  22 O22           -2.4921    -7.8489     0.7299 O.3     
  23 N23            4.3623     3.3519    -0.5993 N.am    
  24 C24            4.6450     3.1488    -2.0224 C.3     
  25 C25           -3.4731    -8.0657     1.7462 C.3     
  26 H26           -0.5172     1.9225    -0.8798 H       
  27 H27           -0.5001     1.9129     0.9142 H       
  28 H28           -3.4875    -2.5272     1.6031 H       
  29 H29           -2.2910    -1.2094     1.6120 H       
  30 H30           -3.5672    -1.2445     0.3716 H       
  31 H31           -0.9558    -0.2304    -1.9143 H       
  32 H32           -2.0797    -0.1299    -0.5377 H       
  33 H33           -0.1131    -0.3821     1.0179 H       
  34 H34            1.8107    -0.9913     0.1144 H       
  35 H35            1.9090     1.8671     1.0025 H       
  36 H36            3.1344     0.6453    -0.6765 H       
  37 H37            1.9393     1.0367    -1.9509 H       
  38 H38            1.0827     3.5605    -1.2734 H       
  39 H39           -0.7506    -6.8920    -1.0908 H       
  40 H40            4.9789     3.0166     0.0703 H       
  41 H41            5.5838     2.6060    -2.1325 H       
  42 H42            3.8373     2.5733    -2.4747 H       
  43 H43            4.7241     4.1160    -2.5187 H       
  44 H44           -3.5995    -9.1364     1.9066 H       
  45 H45           -3.1457    -7.5955     2.6734 H       
  46 H46           -4.4224    -7.6306     1.4336 H       
  47 C47           11.1110    13.0108     9.5417 C.3     
  48 N48           11.1308    11.5460     9.5337 N.2     
  49 C49           11.6715    10.9334     8.5877 C.1     
  50 O50           12.1941    10.3415     7.6734 O.2     
  51 H51           12.1335    13.3881     9.5340 H       
  52 H52           10.5838    13.3719     8.6587 H       
  53 H53           10.6008    13.3623    10.4385 H       
@<TRIPOS>BOND
   1    1   10 1
   2    1   13 1
   3    1   26 1
   4    1   27 1
   5    2    5 1
   6    2   28 1
   7    2   29 1
   8    2   30 1
   9    3    4 2
  10    3    5 1
  11    3   21 1
  12    4   19 1
  13    4    8 1
  14    5    6 2
  15    6    7 1
  16    6    9 1
  17    7    8 1
  18    7   12 2
  19    9   10 1
  20    9   31 1
  21    9   32 1
  22   10   11 1
  23   10   33 1
  24   11   14 1
  25   11   34 1
  26   13   14 1
  27   13   15 1
  28   13   35 1
  29   14   36 1
  30   14   37 1
  31   15   16 am
  32   15   38 1
  33   16   17 2
  34   16   18 2
  35   16   23 am
  36   19   20 2
  37   19   39 1
  38   20   21 1
  39   20   22 1
  40   22   25 1
  41   23   24 1
  42   23   40 1
  43   24   41 1
  44   24   42 1
  45   24   43 1
  46   25   44 1
  47   25   45 1
  48   25   46 1
  49   47   48 1
  50   47   51 1
  51   47   52 1
  52   47   53 1
  53   48   49 2
  54   49   50 2

#	End of record

