#	Name: ASD02900010
#	Creating user name:	WinNT
#	Creation time:	15. 06. 2019 20:26

#	Modifying user name:	WinNT
#	Modification time:	15. 06. 2019 20:26

#	Program:	/corina/corina34_cracker 3.40 0067  02.08.2006

@<TRIPOS>MOLECULE
ASD02900010
  35   36    0    0    0
SMALL
NO_CHARGES


@<TRIPOS>ATOM
   1 C1            -0.0171     1.4130     0.0098 C.ar    
   2 C2             0.0021    -0.0041     0.0020 C.ar    
   3 C3            -1.2134    -0.7095     0.0097 C.ar    
   4 C4            -2.3894    -0.0247     0.0246 C.ar    
   5 C5            -2.4082     1.3689     0.0323 C.ar    
   6 C6            -1.2512     2.0853     0.0194 C.ar    
   7 S7            -3.9532     2.2158     0.0516 S.o2    
   8 O8            -4.9110     1.3157    -0.4887 O.2     
   9 N9            -4.3680     2.4428     1.6386 N.am    
  10 C10           -3.5482     3.3046     2.4939 C.3     
  11 C11           -4.3245     3.6462     3.7673 C.3     
  12 O12           -4.5411     2.4554     4.5271 O.3     
  13 P13           -5.3283     2.4424     5.9315 P.3     
  14 O14           -4.6942     3.4034     6.8614 O.2     
  15 O15           -6.8636     2.8625     5.6900 O.3     
  16 O16           -5.2698     0.9637     6.5657 O.3     
  17 O17           -3.7095     3.5075    -0.4882 O.2     
  18 C18            1.1982     2.1186     0.0020 C.ar    
  19 C19            2.3743     1.4339    -0.0129 C.ar    
  20 C20            2.3932     0.0403    -0.0209 C.ar    
  21 C21            1.2362    -0.6763    -0.0137 C.ar    
  22 H22           -1.2142    -1.7895     0.0035 H       
  23 H23           -3.3220    -0.5693     0.0301 H       
  24 H24           -1.2811     3.1649     0.0256 H       
  25 H25           -5.1538     2.0053     2.0019 H       
  26 H26           -2.6276     2.7841     2.7582 H       
  27 H27           -3.3058     4.2227     1.9589 H       
  28 H28           -3.7517     4.3576     4.3622 H       
  29 H29           -5.2851     4.0865     3.5001 H       
  30 H30           -7.3423     2.2751     5.0891 H       
  31 H31           -5.7250     0.8817     7.4149 H       
  32 H32            1.1989     3.1986     0.0074 H       
  33 H33            3.3068     1.9786    -0.0188 H       
  34 H34            3.3402    -0.4787    -0.0334 H       
  35 H35            1.2663    -1.7558    -0.0201 H       
@<TRIPOS>BOND
   1    1    2 ar
   2    1   18 ar
   3    1    6 ar
   4    2    3 ar
   5    2   21 ar
   6    3    4 ar
   7    3   22 1
   8    4    5 ar
   9    4   23 1
  10    5    6 ar
  11    5    7 1
  12    6   24 1
  13    7    8 2
  14    7    9 am
  15    7   17 2
  16    9   10 1
  17    9   25 1
  18   10   11 1
  19   10   26 1
  20   10   27 1
  21   11   12 1
  22   11   28 1
  23   11   29 1
  24   12   13 1
  25   13   14 2
  26   13   15 1
  27   13   16 1
  28   15   30 1
  29   16   31 1
  30   18   19 ar
  31   18   32 1
  32   19   20 ar
  33   19   33 1
  34   20   21 ar
  35   20   34 1
  36   21   35 1

#	End of record

