#	Name: ASD00843003
#	Creating user name:	WinNT
#	Creation time:	15. 06. 2019 18:45

#	Modifying user name:	WinNT
#	Modification time:	15. 06. 2019 18:45

#	Program:	/corina/corina34_cracker 3.40 0067  02.08.2006

@<TRIPOS>MOLECULE
ASD00843003
  99  104    0    0    0
SMALL
NO_CHARGES


@<TRIPOS>ATOM
   1 F1            -0.1210    -3.1643     4.7110 F       
   2 N2            -0.0142     1.3152     0.0260 N.ar    
   3 C3             0.0027    -0.0071     0.0115 C.ar    
   4 C4             1.2071    -0.6994    -0.0063 C.ar    
   5 C5             2.3932     0.0133    -0.0087 C.ar    
   6 C6             2.3325     1.4001     0.0070 C.ar    
   7 C7             1.1001     2.0220     0.0242 C.ar    
   8 C8             1.2215    -2.2062    -0.0224 C.3     
   9 C9             0.4763    -2.7309    -1.2311 C.2     
  10 N10            2.5989    -2.7051    -0.0123 N.am    
  11 C11            3.4466    -2.3635    -1.0029 C.2     
  12 N12            4.7401    -2.7371    -0.9417 N.am    
  13 O13            3.0444    -1.7183    -1.9518 O.2     
  14 C14            5.2677    -3.4158     0.2497 C.3     
  15 C15            6.4985    -2.6518     0.7480 C.3     
  16 C16            7.5064    -2.5150    -0.3954 C.3     
  17 C17            6.8758    -1.7203    -1.5412 C.3     
  18 C18            5.6479    -2.4788    -2.0677 C.3     
  19 N19            8.7022    -1.8118     0.0878 N.3     
  20 C20            9.7416    -1.7658    -0.9501 C.3     
  21 C21           10.9362    -0.9586    -0.4366 C.3     
  22 N22           11.4506    -1.5780     0.7928 N.3     
  23 C23           10.4112    -1.6239     1.8307 C.3     
  24 C24            9.2166    -2.4312     1.3172 C.3     
  25 C25           12.6464    -0.8748     1.2760 C.3     
  26 O26            0.7576    -2.5304    -2.3938 O.2     
  27 N27           -0.5550    -3.4610    -0.7741 N.am    
  28 C28            0.4478    -2.7557     1.1540 C.ar    
  29 C29           -0.6003    -3.4958     0.6212 C.ar    
  30 C30            0.6112    -2.6428     2.5162 C.ar    
  31 C31           -0.2772    -3.2727     3.3734 C.ar    
  32 C32           -1.3264    -4.0137     2.8537 C.ar    
  33 C33           -1.4903    -4.1269     1.4874 C.ar    
  34 Cl34          -2.4403    -4.8035     3.9256 Cl      
  35 C35           -1.0199    -5.8472    -2.0642 C.ar    
  36 C36            0.1585    -6.0079    -2.7789 C.ar    
  37 C37           -1.6990    -6.9541    -1.5914 C.ar    
  38 C38           -1.2066    -8.2229    -1.8286 C.ar    
  39 C39           -0.0283    -8.3889    -2.5430 C.ar    
  40 C40            0.6545    -7.2803    -3.0186 C.ar    
  41 O41            0.4554    -9.6372    -2.7764 O.3     
  42 O42            0.8257    -4.9191    -3.2439 O.3     
  43 C43           -0.3003   -10.7333    -2.2572 C.3     
  44 C44            2.0318    -5.1593    -3.9716 C.3     
  45 C45            2.6367    -3.8244    -4.4110 C.3     
  46 C46           13.0787    -1.4673     2.6188 C.3     
  47 C47           13.7784    -1.0357     0.2594 C.3     
  48 S48           -1.6470    -4.2303    -1.7528 S.o2    
  49 O49           -2.8280    -4.3998    -0.9809 O.2     
  50 O50           -1.6236    -3.5444    -2.9971 O.2     
  51 O51           -1.1672    -0.6942     0.0144 O.3     
  52 C52           -2.3713     0.0751     0.0335 C.3     
  53 C53           -3.5777    -0.8659     0.0339 C.3     
  54 F54           -3.5500    -1.6602    -1.1173 F       
  55 F55           -3.5297    -1.6851     1.1670 F       
  56 H56            3.3446    -0.4978    -0.0220 H       
  57 H57            3.2396     1.9862     0.0060 H       
  58 H58            1.0473     3.1006     0.0361 H       
  59 H59            2.9009    -3.2812     0.7072 H       
  60 H60            4.5061    -3.4301     1.0294 H       
  61 H61            5.5504    -4.4369    -0.0065 H       
  62 H62            6.1982    -1.6610     1.0889 H       
  63 H63            6.9561    -3.1977     1.5730 H       
  64 H64            7.7875    -3.5058    -0.7523 H       
  65 H65            6.5720    -0.7382    -1.1788 H       
  66 H66            7.6020    -1.6031    -2.3456 H       
  67 H67            5.9643    -3.4221    -2.5128 H       
  68 H68            5.1371    -1.8726    -2.8158 H       
  69 H69           10.0631    -2.7798    -1.1879 H       
  70 H70            9.3403    -1.2917    -1.8458 H       
  71 H71           11.7202    -0.9476    -1.1938 H       
  72 H72           10.6206     0.0630    -0.2245 H       
  73 H73           10.8125    -2.0980     2.7264 H       
  74 H74           10.0897    -0.6099     2.0685 H       
  75 H75            8.4327    -2.4422     2.0744 H       
  76 H76            9.5322    -3.4527     1.1051 H       
  77 H77           12.4192     0.1838     1.4023 H       
  78 H78            1.4308    -2.0644     2.9164 H       
  79 H79           -2.3103    -4.7060     1.0893 H       
  80 H80           -2.6160    -6.8269    -1.0352 H       
  81 H81           -1.7387    -9.0863    -1.4575 H       
  82 H82            1.5714    -7.4075    -3.5751 H       
  83 H83           -0.3712   -10.6446    -1.1731 H       
  84 H84           -1.3011   -10.7215    -2.6889 H       
  85 H85            0.1949   -11.6699    -2.5135 H       
  86 H86            2.7413    -5.6876    -3.3348 H       
  87 H87            1.8114    -5.7652    -4.8505 H       
  88 H88            3.5568    -4.0076    -4.9661 H       
  89 H89            1.9272    -3.2961    -5.0479 H       
  90 H90            2.8572    -3.2186    -3.5322 H       
  91 H91           12.2723    -1.3526     3.3430 H       
  92 H92           13.3059    -2.5258     2.4925 H       
  93 H93           13.9660    -0.9455     2.9773 H       
  94 H94           13.4704    -0.6136    -0.6972 H       
  95 H95           14.6657    -0.5139     0.6180 H       
  96 H96           14.0056    -2.0943     0.1332 H       
  97 H97           -2.3929     0.6940     0.9305 H       
  98 H98           -2.4087     0.7134    -0.8493 H       
  99 H99           -4.4962    -0.2791     0.0485 H       
@<TRIPOS>BOND
   1    1   31 1
   2    2    3 ar
   3    2    7 ar
   4    3    4 ar
   5    3   51 1
   6    4    5 ar
   7    4    8 1
   8    5    6 ar
   9    5   56 1
  10    6    7 ar
  11    6   57 1
  12    7   58 1
  13    8    9 1
  14    8   10 1
  15    8   28 1
  16    9   26 2
  17    9   27 am
  18   10   11 am
  19   10   59 1
  20   11   12 am
  21   11   13 2
  22   12   14 1
  23   12   18 1
  24   14   15 1
  25   14   60 1
  26   14   61 1
  27   15   16 1
  28   15   62 1
  29   15   63 1
  30   16   17 1
  31   16   19 1
  32   16   64 1
  33   17   18 1
  34   17   65 1
  35   17   66 1
  36   18   67 1
  37   18   68 1
  38   19   20 1
  39   19   24 1
  40   20   21 1
  41   20   69 1
  42   20   70 1
  43   21   22 1
  44   21   71 1
  45   21   72 1
  46   22   23 1
  47   22   25 1
  48   23   24 1
  49   23   73 1
  50   23   74 1
  51   24   75 1
  52   24   76 1
  53   25   46 1
  54   25   47 1
  55   25   77 1
  56   27   48 am
  57   27   29 1
  58   28   29 ar
  59   28   30 ar
  60   29   33 ar
  61   30   31 ar
  62   30   78 1
  63   31   32 ar
  64   32   33 ar
  65   32   34 1
  66   33   79 1
  67   35   36 ar
  68   35   37 ar
  69   35   48 1
  70   36   42 1
  71   36   40 ar
  72   37   38 ar
  73   37   80 1
  74   38   39 ar
  75   38   81 1
  76   39   40 ar
  77   39   41 1
  78   40   82 1
  79   41   43 1
  80   42   44 1
  81   43   83 1
  82   43   84 1
  83   43   85 1
  84   44   45 1
  85   44   86 1
  86   44   87 1
  87   45   88 1
  88   45   89 1
  89   45   90 1
  90   46   91 1
  91   46   92 1
  92   46   93 1
  93   47   94 1
  94   47   95 1
  95   47   96 1
  96   48   49 2
  97   48   50 2
  98   51   52 1
  99   52   53 1
 100   52   97 1
 101   52   98 1
 102   53   54 1
 103   53   55 1
 104   53   99 1

#	End of record

