#	Name: ASD03091321
#	Creating user name:	WinNT
#	Creation time:	15. 06. 2019 20:30

#	Modifying user name:	WinNT
#	Modification time:	15. 06. 2019 20:30

#	Program:	/corina/corina34_cracker 3.40 0067  02.08.2006

@<TRIPOS>MOLECULE
ASD03091321
  53   57    0    0    0
SMALL
NO_CHARGES


@<TRIPOS>ATOM
   1 N1            -0.0255     1.2839    -0.3958 N.am    
   2 C2            -0.0115    -0.0076     0.0579 C.2     
   3 N3            -1.0733    -0.6134     0.5193 N.2     
   4 C4            -2.2710     0.0029     0.5798 C.ar    
   5 C5            -2.3811     1.3396     0.1326 C.ar    
   6 C6            -1.1718     2.0033    -0.3780 C.2     
   7 C7             1.2663    -0.7528     0.0237 C.ar    
   8 O8            -1.2027     3.1528    -0.7772 O.2     
   9 C9            -3.4039    -0.6511     1.0743 C.ar    
  10 C10           -4.6014     0.0026     1.1212 C.ar    
  11 C11           -4.7152     1.3213     0.6806 C.ar    
  12 C12           -3.6094     1.9933     0.1865 C.ar    
  13 N13           -5.9521     1.9683     0.7385 N.3     
  14 C14           -5.8322     3.3707     0.3223 C.3     
  15 C15            1.3483    -2.0121     0.6161 C.ar    
  16 C16            2.5512    -2.6975     0.5755 C.ar    
  17 C17            3.6321    -2.1008    -0.0562 C.ar    
  18 C18            3.4798    -0.8470    -0.6238 C.ar    
  19 N19            2.3244    -0.2190    -0.5758 N.ar    
  20 C20            1.2087     1.8928    -0.8979 C.3     
  21 C21           -6.9515     1.2683    -0.0807 C.3     
  22 C22           -8.3091     1.2892     0.6055 C.3     
  23 C23           -8.9867     2.6438     0.5574 C.3     
  24 N24           -8.2157     3.6064    -0.2425 N.3     
  25 C25           -7.1123     4.1568     0.5592 C.3     
  26 C26           -7.8649     3.0980    -1.5513 C.3     
  27 C27           -6.9671     1.8742    -1.4721 C.3     
  28 C28            4.6518    -0.1951    -1.3111 C.3     
  29 H29           -3.3315    -1.6723     1.4183 H       
  30 H30           -5.4725    -0.5082     1.5041 H       
  31 H31           -3.6991     3.0144    -0.1538 H       
  32 H32           -5.0224     3.8374     0.8832 H       
  33 H33           -5.5887     3.4042    -0.7396 H       
  34 H34            0.4863    -2.4469     1.1001 H       
  35 H35            2.6454    -3.6746     1.0259 H       
  36 H36            4.5838    -2.6091    -0.1045 H       
  37 H37            1.3528     1.6142    -1.9418 H       
  38 H38            1.1374     2.9775    -0.8179 H       
  39 H39            2.0543     1.5398    -0.3076 H       
  40 H40           -6.6382     0.2290    -0.1796 H       
  41 H41           -8.9563     0.5574     0.1222 H       
  42 H42           -8.1780     1.0010     1.6485 H       
  43 H43           -9.9782     2.5304     0.1190 H       
  44 H44           -9.0896     3.0266     1.5727 H       
  45 H45           -7.3753     4.1048     1.6157 H       
  46 H46           -6.9509     5.1982     0.2808 H       
  47 H47           -8.7782     2.8326    -2.0839 H       
  48 H48           -7.3481     3.8801    -2.1075 H       
  49 H49           -5.9517     2.1615    -1.7449 H       
  50 H50           -7.3243     1.1264    -2.1802 H       
  51 H51            4.6561    -0.4738    -2.3648 H       
  52 H52            4.5687     0.8881    -1.2220 H       
  53 H53            5.5784    -0.5281    -0.8435 H       
@<TRIPOS>BOND
   1    1    2 1
   2    1   20 1
   3    1    6 am
   4    2    3 2
   5    2    7 1
   6    3    4 1
   7    4    5 ar
   8    4    9 ar
   9    5    6 1
  10    5   12 ar
  11    6    8 2
  12    7   15 ar
  13    7   19 ar
  14    9   10 ar
  15    9   29 1
  16   10   11 ar
  17   10   30 1
  18   11   12 ar
  19   11   13 1
  20   12   31 1
  21   13   21 1
  22   13   14 1
  23   14   25 1
  24   14   32 1
  25   14   33 1
  26   15   16 ar
  27   15   34 1
  28   16   17 ar
  29   16   35 1
  30   17   18 ar
  31   17   36 1
  32   18   19 ar
  33   18   28 1
  34   20   37 1
  35   20   38 1
  36   20   39 1
  37   21   22 1
  38   21   27 1
  39   21   40 1
  40   22   23 1
  41   22   41 1
  42   22   42 1
  43   23   24 1
  44   23   43 1
  45   23   44 1
  46   24   25 1
  47   24   26 1
  48   25   45 1
  49   25   46 1
  50   26   27 1
  51   26   47 1
  52   26   48 1
  53   27   49 1
  54   27   50 1
  55   28   51 1
  56   28   52 1
  57   28   53 1

#	End of record

