#	Name: ASD02198747
#	Creating user name:	WinNT
#	Creation time:	15. 06. 2019 20:20

#	Modifying user name:	WinNT
#	Modification time:	15. 06. 2019 20:20

#	Program:	/corina/corina34_cracker 3.40 0067  02.08.2006

@<TRIPOS>MOLECULE
ASD02198747
  45   49    0    0    0
SMALL
NO_CHARGES


@<TRIPOS>ATOM
   1 F1             2.2525    -1.7111     2.4726 F       
   2 C2            -0.0433     1.5019    -0.1149 C.2     
   3 C3            -0.0731     0.1622     0.0977 C.2     
   4 N4             1.0712    -0.5394     0.2604 N.pl3   
   5 N5             2.2357    -0.0047     0.2264 N.2     
   6 C6             2.4073     1.2847     0.0277 C.2     
   7 C7             1.2216     2.1359    -0.1604 C.2     
   8 C8             0.9797    -1.9185     0.4775 C.ar    
   9 C9             1.5802    -2.4887     1.5958 C.ar    
  10 C10            1.4888    -3.8513     1.8086 C.ar    
  11 C11            0.7982    -4.6495     0.9068 C.ar    
  12 C12            0.1989    -4.0797    -0.2093 C.ar    
  13 C13            0.2843    -2.7187    -0.4204 C.ar    
  14 C14            3.7643     1.8669    -0.0049 C.2     
  15 N15            4.3063     2.6066    -1.0182 N.pl3   
  16 N16            5.6084     2.9579    -0.6406 N.2     
  17 C17            5.8522     2.4585     0.5448 C.2     
  18 C18            4.7199     1.7716     0.9828 C.2     
  19 C19            3.6731     2.9516    -2.2190 C.ar    
  20 C20            3.8074     4.2347    -2.7328 C.ar    
  21 C21            3.1818     4.5717    -3.9171 C.ar    
  22 C22            2.4223     3.6330    -4.5911 C.ar    
  23 C23            2.2863     2.3546    -4.0818 C.ar    
  24 C24            2.9145     2.0095    -2.9012 C.ar    
  25 O25            1.3245     3.3390    -0.3482 O.2     
  26 N26            0.7059    -6.0320     1.1226 N.pl3   
  27 C27            0.0656    -6.9410     0.3206 C.2     
  28 C28            1.2389    -6.7243     2.1626 C.2     
  29 N29            0.9418    -7.9869     2.0172 N.2     
  30 C30            0.2229    -8.1481     0.8964 C.2     
  31 H31           -0.9547     2.0655    -0.2494 H       
  32 H32           -1.0229    -0.3503     0.1377 H       
  33 H33            1.9548    -4.2950     2.6760 H       
  34 H34           -0.3377    -4.7018    -0.9102 H       
  35 H35           -0.1824    -2.2768    -1.2883 H       
  36 H36            6.7757     2.5647     1.0945 H       
  37 H37            4.6140     1.2524     1.9239 H       
  38 H38            4.4001     4.9684    -2.2067 H       
  39 H39            3.2855     5.5696    -4.3170 H       
  40 H40            1.9340     3.8990    -5.5169 H       
  41 H41            1.6919     1.6239    -4.6102 H       
  42 H42            2.8079     1.0109    -2.5040 H       
  43 H43           -0.4637    -6.7296    -0.5968 H       
  44 H44            1.8128    -6.3009     2.9737 H       
  45 H45           -0.1631    -9.0842     0.5207 H       
@<TRIPOS>BOND
   1    1    9 1
   2    2    3 2
   3    2    7 1
   4    2   31 1
   5    3    4 1
   6    3   32 1
   7    4    5 1
   8    4    8 1
   9    5    6 2
  10    6    7 1
  11    6   14 1
  12    7   25 2
  13    8    9 ar
  14    8   13 ar
  15    9   10 ar
  16   10   11 ar
  17   10   33 1
  18   11   12 ar
  19   11   26 1
  20   12   13 ar
  21   12   34 1
  22   13   35 1
  23   14   15 1
  24   14   18 2
  25   15   16 1
  26   15   19 1
  27   16   17 2
  28   17   18 1
  29   17   36 1
  30   18   37 1
  31   19   20 ar
  32   19   24 ar
  33   20   21 ar
  34   20   38 1
  35   21   22 ar
  36   21   39 1
  37   22   23 ar
  38   22   40 1
  39   23   24 ar
  40   23   41 1
  41   24   42 1
  42   26   28 1
  43   26   27 1
  44   27   30 2
  45   27   43 1
  46   28   29 2
  47   28   44 1
  48   29   30 1
  49   30   45 1

#	End of record

