#	Name: ASD03731473
#	Creating user name:	WinNT
#	Creation time:	15. 06. 2019 20:45

#	Modifying user name:	WinNT
#	Modification time:	15. 06. 2019 20:45

#	Program:	/corina/corina34_cracker 3.40 0067  02.08.2006

@<TRIPOS>MOLECULE
ASD03731473
  59   65    0    0    0
SMALL
NO_CHARGES


@<TRIPOS>ATOM
   1 N1            -0.0157     1.3091     0.0092 N.ar    
   2 C2             0.0021    -0.0041     0.0020 C.ar    
   3 C3             1.2131    -0.7015    -0.0128 C.ar    
   4 N4             2.3570    -0.0574    -0.0198 N.ar    
   5 C5             2.3652     1.2809    -0.0131 C.ar    
   6 C6             3.5739     1.9953    -0.0208 C.ar    
   7 C7             3.5476     3.3795    -0.0141 C.ar    
   8 C8             2.3229     4.0696     0.0008 C.ar    
   9 C9             1.1445     3.3956     0.0084 C.ar    
  10 C10            1.1366     1.9890     0.0019 C.ar    
  11 C11            4.8171     4.1377    -0.0221 C.2     
  12 O12            5.8785     3.5455    -0.0345 O.2     
  13 N13            4.7972     5.4853    -0.0156 N.am    
  14 C14            6.0550     6.2364    -0.0235 C.3     
  15 C15            5.7533     7.7363    -0.0138 C.3     
  16 C16            7.0669     8.5208    -0.0221 C.3     
  17 O17            1.4633    12.4465     2.1871 O.3     
  18 C18            0.8025    13.7002     2.4412 C.3     
  19 O19            1.8518    14.5425     2.9538 O.3     
  20 C20            3.0082    14.0547     2.4156 C.ar    
  21 C21            2.7689    12.7655     1.9453 C.ar    
  22 C22            4.2659    14.6159     2.2859 C.ar    
  23 C23            5.2992    13.9002     1.6888 C.ar    
  24 C24            5.0502    12.6102     1.2303 C.ar    
  25 C25            3.7957    12.0500     1.3526 C.ar    
  26 O26            6.5905    14.2687     1.4500 O.3     
  27 C27            6.3495    12.0956     0.6708 C.3     
  28 C28            7.3848    13.0904     1.2130 C.3     
  29 N29            6.7780     9.9570    -0.0127 N.am    
  30 C30            6.6403    10.6896     1.1104 C.2     
  31 C31            6.3477    12.0513    -0.8285 C.ar    
  32 C32            6.1486    12.9983    -1.8081 C.ar    
  33 C33            6.2132    12.6391    -3.1426 C.ar    
  34 C34            6.4775    11.3268    -3.4901 C.ar    
  35 C35            6.6768    10.3744    -2.5126 C.ar    
  36 C36            6.6140    10.7270    -1.1667 C.ar    
  37 O37            6.7334    10.2912     2.2522 O.2     
  38 H38           -0.9292    -0.5509     0.0080 H       
  39 H39            1.2079    -1.7815    -0.0182 H       
  40 H40            4.5170     1.4691    -0.0315 H       
  41 H41            2.3195     5.1496     0.0066 H       
  42 H42            0.2118     3.9401     0.0198 H       
  43 H43            3.9502     5.9578    -0.0057 H       
  44 H44            6.6385     5.9774     0.8600 H       
  45 H45            6.6222     5.9857    -0.9199 H       
  46 H46            5.1698     7.9954    -0.8973 H       
  47 H47            5.1861     7.9870     0.8826 H       
  48 H48            7.6503     8.2618     0.8614 H       
  49 H49            7.6341     8.2701    -0.9184 H       
  50 H50            0.3966    14.1132     1.5178 H       
  51 H51            0.0151    13.5744     3.1843 H       
  52 H52            4.4470    15.6163     2.6506 H       
  53 H53            3.6140    11.0508     0.9854 H       
  54 H54            8.1580    13.2876     0.4705 H       
  55 H55            7.8227    12.7255     2.1421 H       
  56 H56            5.9421    14.0225    -1.5344 H       
  57 H57            6.0579    13.3818    -3.9111 H       
  58 H58            6.5278    11.0464    -4.5319 H       
  59 H59            6.8822     9.3515    -2.7918 H       
@<TRIPOS>BOND
   1    1    2 ar
   2    1   10 ar
   3    2    3 ar
   4    2   38 1
   5    3    4 ar
   6    3   39 1
   7    4    5 ar
   8    5    6 ar
   9    5   10 ar
  10    6    7 ar
  11    6   40 1
  12    7    8 ar
  13    7   11 1
  14    8    9 ar
  15    8   41 1
  16    9   10 ar
  17    9   42 1
  18   11   12 2
  19   11   13 am
  20   13   14 1
  21   13   43 1
  22   14   15 1
  23   14   44 1
  24   14   45 1
  25   15   16 1
  26   15   46 1
  27   15   47 1
  28   16   29 1
  29   16   48 1
  30   16   49 1
  31   17   18 1
  32   17   21 1
  33   18   19 1
  34   18   50 1
  35   18   51 1
  36   19   20 1
  37   20   21 ar
  38   20   22 ar
  39   21   25 ar
  40   22   23 ar
  41   22   52 1
  42   23   24 ar
  43   23   26 1
  44   24   25 ar
  45   24   27 1
  46   25   53 1
  47   26   28 1
  48   27   28 1
  49   27   30 1
  50   27   31 1
  51   28   54 1
  52   28   55 1
  53   29   30 am
  54   29   36 1
  55   30   37 2
  56   31   32 ar
  57   31   36 ar
  58   32   33 ar
  59   32   56 1
  60   33   34 ar
  61   33   57 1
  62   34   35 ar
  63   34   58 1
  64   35   36 ar
  65   35   59 1

#	End of record

