#	Name: ASD03910017
#	Creating user name:	WinNT
#	Creation time:	15. 06. 2019 20:47

#	Modifying user name:	WinNT
#	Modification time:	15. 06. 2019 20:47

#	Program:	/corina/corina34_cracker 3.40 0067  02.08.2006

@<TRIPOS>MOLECULE
ASD03910017
  52   54    0    0    0
SMALL
NO_CHARGES


@<TRIPOS>ATOM
   1 C1             0.1459     0.0958    -1.2068 C.ar    
   2 C2             1.1010     0.6055    -0.3450 C.ar    
   3 C3             0.7853     1.6546     0.4988 C.ar    
   4 C4            -0.4844     2.1973     0.4835 C.ar    
   5 C5            -1.4457     1.6886    -0.3806 C.ar    
   6 C6            -1.1253     0.6388    -1.2306 C.ar    
   7 N7            -2.7331     2.2365    -0.3977 N.am    
   8 C8            -2.9049     3.5599    -0.2093 C.2     
   9 C9            -4.2798     4.1656    -0.3268 C.3     
  10 O10           -1.9528     4.2634     0.0549 O.2     
  11 C11           -4.1987     5.6488    -0.0726 C.ar    
  12 C12           -3.9779     6.5182    -1.1248 C.ar    
  13 C13           -3.9032     7.8783    -0.8945 C.ar    
  14 C14           -4.0499     8.3715     0.3939 C.ar    
  15 C15           -4.2714     7.4971     1.4479 C.ar    
  16 C16           -4.3509     6.1383     1.2115 C.ar    
  17 O17           -3.9764     9.7090     0.6231 O.3     
  18 C18           -4.2220    10.1527     1.9591 C.3     
  19 C19           -3.2060     9.5531     2.8968 C.2     
  20 C20           -4.1576    11.6887     2.0246 C.3     
  21 C21           -5.5453    12.1681     2.4984 C.3     
  22 C22           -6.5000    11.0125     2.1084 C.3     
  23 C23           -5.6459     9.7512     2.3959 C.3     
  24 C24           -3.0832    12.1263     3.0221 C.3     
  25 O25           -3.5194     9.2764     4.0304 O.2     
  26 O26           -1.9528     9.3264     2.4726 O.3     
  27 Cl27           0.5462    -1.2217    -2.2640 Cl      
  28 C28            1.8282     2.2061     1.4366 C.3     
  29 H29            2.0948     0.1828    -0.3310 H       
  30 H30           -0.7300     3.0164     1.1431 H       
  31 H31           -1.8705     0.2414    -1.9038 H       
  32 H32           -3.5020     1.6638    -0.5451 H       
  33 H33           -4.6699     3.9895    -1.3292 H       
  34 H34           -4.9428     3.7070     0.4069 H       
  35 H35           -3.8635     6.1337    -2.1275 H       
  36 H36           -3.7304     8.5570    -1.7166 H       
  37 H37           -4.3859     7.8786     2.4517 H       
  38 H38           -4.5233     5.4571     2.0316 H       
  39 H39           -3.9391    12.0957     1.0373 H       
  40 H40           -5.5489    12.3180     3.5781 H       
  41 H41           -5.8278    13.0865     1.9839 H       
  42 H42           -7.3943    11.0234     2.7313 H       
  43 H43           -6.7629    11.0685     1.0521 H       
  44 H44           -6.0024     8.9066     1.8062 H       
  45 H45           -5.6661     9.5110     3.4589 H       
  46 H46           -2.1264    11.6854     2.7421 H       
  47 H47           -2.9992    13.2130     3.0123 H       
  48 H48           -3.3584    11.7921     4.0224 H       
  49 H49           -1.3366     8.9404     3.1101 H       
  50 H50            2.3747     3.0083     0.9409 H       
  51 H51            1.3426     2.5960     2.3311 H       
  52 H52            2.5215     1.4127     1.7160 H       
@<TRIPOS>BOND
   1    1    2 ar
   2    1   27 1
   3    1    6 ar
   4    2    3 ar
   5    2   29 1
   6    3    4 ar
   7    3   28 1
   8    4    5 ar
   9    4   30 1
  10    5    6 ar
  11    5    7 1
  12    6   31 1
  13    7    8 am
  14    7   32 1
  15    8    9 1
  16    8   10 2
  17    9   11 1
  18    9   33 1
  19    9   34 1
  20   11   12 ar
  21   11   16 ar
  22   12   13 ar
  23   12   35 1
  24   13   14 ar
  25   13   36 1
  26   14   15 ar
  27   14   17 1
  28   15   16 ar
  29   15   37 1
  30   16   38 1
  31   17   18 1
  32   18   19 1
  33   18   20 1
  34   18   23 1
  35   19   25 2
  36   19   26 1
  37   20   21 1
  38   20   24 1
  39   20   39 1
  40   21   22 1
  41   21   40 1
  42   21   41 1
  43   22   23 1
  44   22   42 1
  45   22   43 1
  46   23   44 1
  47   23   45 1
  48   24   46 1
  49   24   47 1
  50   24   48 1
  51   26   49 1
  52   28   50 1
  53   28   51 1
  54   28   52 1

#	End of record

