#	Name: ASD05130005
#	Creating user name:	WinNT
#	Creation time:	15. 06. 2019 20:56

#	Modifying user name:	WinNT
#	Modification time:	15. 06. 2019 20:56

#	Program:	/corina/corina34_cracker 3.40 0067  02.08.2006

@<TRIPOS>MOLECULE
ASD05130005
  69   73    0    0    0
SMALL
NO_CHARGES


@<TRIPOS>ATOM
   1 N1            -0.1623     1.5511     0.1044 N.am    
   2 C2             0.0503     0.4234     0.8111 C.2     
   3 O3             1.1175     0.2459     1.3662 O.2     
   4 N4            -0.9199    -0.5077     0.9025 N.am    
   5 C5            -0.6640    -1.7248     1.5463 C.ar    
   6 C6            -1.6749    -2.3643     2.2517 C.ar    
   7 C7            -1.4205    -3.5643     2.8858 C.ar    
   8 C8            -0.1581    -4.1299     2.8191 C.ar    
   9 C9             0.8513    -3.4937     2.1168 C.ar    
  10 C10            0.5991    -2.2965     1.4755 C.ar    
  11 C11           -2.5172    -4.2587     3.6514 C.3     
  12 N12           -3.0019    -5.4094     2.8774 N.3     
  13 C13           -3.9020    -6.2501     3.6879 C.3     
  14 C14           -5.2424    -6.3479     2.9295 C.3     
  15 C15           -4.8398    -6.0291     1.4656 C.3     
  16 C16           -3.7315    -4.9664     1.6702 C.3     
  17 F17            0.0889    -5.3038     3.4406 F       
  18 C18            0.8116     2.5583     0.0824 C.ar    
  19 C19            0.4349     3.8870    -0.0894 C.ar    
  20 C20            1.3936     4.8844    -0.1113 C.ar    
  21 C21            2.7299     4.5663     0.0374 C.ar    
  22 C22            3.1154     3.2364     0.2101 C.ar    
  23 C23            2.1489     2.2321     0.2374 C.ar    
  24 F24           -0.8703     4.2037    -0.2358 F       
  25 N25            6.5380     2.8539     1.7792 N.am    
  26 C26            5.2354     3.1662     1.6334 C.2     
  27 C27            4.5479     2.8930     0.3693 C.2     
  28 C28            5.2371     2.3183    -0.6636 C.2     
  29 C29            6.6044     1.9995    -0.4860 C.ar    
  30 C30            7.3482     1.4109    -1.5160 C.ar    
  31 N31            8.6182     1.1213    -1.3347 N.ar    
  32 C32            9.2441     1.3682    -0.1888 C.ar    
  33 C33            8.5821     1.9494     0.8833 C.ar    
  34 C34            7.2381     2.2757     0.7454 C.ar    
  35 O35            4.6270     3.6774     2.5567 O.2     
  36 N36           10.5856     1.0381    -0.0617 N.pl3   
  37 C37           11.2895     1.3040     1.1952 C.3     
  38 C38            7.2159     3.1377     3.0465 C.3     
  39 C39            7.0840     1.9303     3.9770 C.3     
  40 Cl40           3.9293     5.8210     0.0087 Cl      
  41 H41           -0.9879     1.6639    -0.3921 H       
  42 H42           -1.7954    -0.3347     0.5224 H       
  43 H43           -2.6593    -1.9232     2.3045 H       
  44 H44            1.8352    -3.9362     2.0662 H       
  45 H45            1.3855    -1.8029     0.9237 H       
  46 H46           -2.1292    -4.6032     4.6100 H       
  47 H47           -3.3388    -3.5628     3.8209 H       
  48 H48           -3.4714    -7.2440     3.8097 H       
  49 H49           -4.0605    -5.7902     4.6634 H       
  50 H50           -5.6556    -7.3537     3.0053 H       
  51 H51           -5.9516    -5.6095     3.3036 H       
  52 H52           -4.4445    -6.9146     0.9677 H       
  53 H53           -5.6811    -5.6140     0.9108 H       
  54 H54           -4.1736    -3.9836     1.8334 H       
  55 H55           -3.0631    -4.9446     0.8095 H       
  56 H56            1.0967     5.9141    -0.2453 H       
  57 H57            2.4423     1.2019     0.3753 H       
  58 H58            4.7441     2.1103    -1.6017 H       
  59 H59            6.8770     1.1935    -2.4632 H       
  60 H60            9.1024     2.1451     1.8092 H       
  61 H61           11.0574     0.6312    -0.8052 H       
  62 H62           11.2598     2.3724     1.4093 H       
  63 H63           10.8060     0.7577     2.0051 H       
  64 H64           12.3264     0.9799     1.1066 H       
  65 H65            8.2707     3.3373     2.8576 H       
  66 H66            6.7594     4.0094     3.5155 H       
  67 H67            7.5883     2.1415     4.9199 H       
  68 H68            6.0292     1.7307     4.1659 H       
  69 H69            7.5404     1.0586     3.5081 H       
@<TRIPOS>BOND
   1    1    2 am
   2    1   18 1
   3    1   41 1
   4    2    3 2
   5    2    4 am
   6    4    5 1
   7    4   42 1
   8    5    6 ar
   9    5   10 ar
  10    6    7 ar
  11    6   43 1
  12    7    8 ar
  13    7   11 1
  14    8    9 ar
  15    8   17 1
  16    9   10 ar
  17    9   44 1
  18   10   45 1
  19   11   12 1
  20   11   46 1
  21   11   47 1
  22   12   13 1
  23   12   16 1
  24   13   14 1
  25   13   48 1
  26   13   49 1
  27   14   15 1
  28   14   50 1
  29   14   51 1
  30   15   16 1
  31   15   52 1
  32   15   53 1
  33   16   54 1
  34   16   55 1
  35   18   19 ar
  36   18   23 ar
  37   19   20 ar
  38   19   24 1
  39   20   21 ar
  40   20   56 1
  41   21   22 ar
  42   21   40 1
  43   22   23 ar
  44   22   27 1
  45   23   57 1
  46   25   26 am
  47   25   34 1
  48   25   38 1
  49   26   27 1
  50   26   35 2
  51   27   28 2
  52   28   29 1
  53   28   58 1
  54   29   30 ar
  55   29   34 ar
  56   30   31 ar
  57   30   59 1
  58   31   32 ar
  59   32   33 ar
  60   32   36 1
  61   33   34 ar
  62   33   60 1
  63   36   37 1
  64   36   61 1
  65   37   62 1
  66   37   63 1
  67   37   64 1
  68   38   39 1
  69   38   65 1
  70   38   66 1
  71   39   67 1
  72   39   68 1
  73   39   69 1

#	End of record

