#	Name: ASD03090274
#	Creating user name:	WinNT
#	Creation time:	15. 06. 2019 20:28

#	Modifying user name:	WinNT
#	Modification time:	15. 06. 2019 20:28

#	Program:	/corina/corina34_cracker 3.40 0067  02.08.2006

@<TRIPOS>MOLECULE
ASD03090274
  56   58    0    0    0
SMALL
NO_CHARGES


@<TRIPOS>ATOM
   1 C1             0.1931     1.0473     0.8781 C.ar    
   2 N2            -0.9259     1.4720     1.4467 N.ar    
   3 C3            -2.0702     0.8406     1.2826 C.ar    
   4 C4            -2.1418    -0.3083     0.4961 C.ar    
   5 C5            -0.9768    -0.7849    -0.1201 C.ar    
   6 C6             0.1996    -0.0898     0.0742 C.ar    
   7 C7            -3.4284    -1.0141     0.3150 C.2     
   8 N8            -6.9346    -1.2550     0.4111 N.pl3   
   9 C9            -7.4359    -0.0750     0.9705 C.ar    
  10 C10           -6.7056     0.6003     1.9395 C.ar    
  11 C11           -7.2024     1.7656     2.4902 C.ar    
  12 C12           -8.4278     2.2602     2.0770 C.ar    
  13 C13           -9.1581     1.5881     1.1110 C.ar    
  14 C14           -8.6625     0.4261     0.5533 C.ar    
  15 N15           -4.6263    -0.5162     0.5508 N.2     
  16 C16           -5.5563    -1.4335     0.2774 C.2     
  17 N17           -4.9668    -2.5308    -0.1370 N.2     
  18 N18           -3.5847    -2.2823    -0.1273 N.pl3   
  19 C19           -2.5224    -3.2154    -0.5108 C.3     
  20 F20           -8.9120     3.3998     2.6172 F       
  21 C21           -2.2830    -3.1235    -2.0192 C.3     
  22 C22           -1.1902    -4.0833    -2.4137 C.2     
  23 N23           -0.8070    -4.1753    -3.7026 N.am    
  24 O24           -0.6556    -4.7730    -1.5714 O.2     
  25 C25            0.2553    -5.1083    -4.0861 C.3     
  26 C26           -1.4528    -3.3422    -4.7200 C.3     
  27 N27            1.3735     1.7485     1.0817 N.pl3   
  28 C28            2.6163     1.2877     0.4577 C.3     
  29 C29            3.7590     2.2307     0.8396 C.3     
  30 C30          -10.4918     2.1287     0.6637 C.3     
  31 F31          -11.0342     1.2843    -0.3109 F       
  32 F32          -11.3595     2.1944     1.7592 F       
  33 F33          -10.3198     3.4095     0.1277 F       
  34 H34           -2.9618     1.2164     1.7624 H       
  35 H35           -0.9999    -1.6722    -0.7353 H       
  36 H36            1.1163    -0.4283    -0.3857 H       
  37 H37           -7.5444    -1.9492     0.1161 H       
  38 H38           -5.7500     0.2144     2.2627 H       
  39 H39           -6.6348     2.2911     3.2439 H       
  40 H40           -9.2322    -0.0974    -0.2001 H       
  41 H41           -1.6050    -2.9591     0.0190 H       
  42 H42           -2.8201    -4.2314    -0.2515 H       
  43 H43           -3.2004    -3.3797    -2.5490 H       
  44 H44           -1.9853    -2.1075    -2.2785 H       
  45 H45           -0.1828    -6.0743    -4.3374 H       
  46 H46            0.7891    -4.7154    -4.9514 H       
  47 H47            0.9499    -5.2296    -3.2550 H       
  48 H48           -0.9114    -2.4010    -4.8162 H       
  49 H49           -1.4451    -3.8652    -5.6763 H       
  50 H50           -2.4824    -3.1405    -4.4245 H       
  51 H51            1.3756     2.5437     1.6372 H       
  52 H52            2.8453     0.2801     0.8049 H       
  53 H53            2.4979     1.2805    -0.6258 H       
  54 H54            3.5300     3.2382     0.4925 H       
  55 H55            3.8774     2.2379     1.9232 H       
  56 H56            4.6836     1.8878     0.3754 H       
@<TRIPOS>BOND
   1    1    2 ar
   2    1   27 1
   3    1    6 ar
   4    2    3 ar
   5    3    4 ar
   6    3   34 1
   7    4    5 ar
   8    4    7 1
   9    5    6 ar
  10    5   35 1
  11    6   36 1
  12    7   15 2
  13    7   18 1
  14    8    9 1
  15    8   16 1
  16    8   37 1
  17    9   10 ar
  18    9   14 ar
  19   10   11 ar
  20   10   38 1
  21   11   12 ar
  22   11   39 1
  23   12   13 ar
  24   12   20 1
  25   13   14 ar
  26   13   30 1
  27   14   40 1
  28   15   16 1
  29   16   17 2
  30   17   18 1
  31   18   19 1
  32   19   21 1
  33   19   41 1
  34   19   42 1
  35   21   22 1
  36   21   43 1
  37   21   44 1
  38   22   23 am
  39   22   24 2
  40   23   25 1
  41   23   26 1
  42   25   45 1
  43   25   46 1
  44   25   47 1
  45   26   48 1
  46   26   49 1
  47   26   50 1
  48   27   28 1
  49   27   51 1
  50   28   29 1
  51   28   52 1
  52   28   53 1
  53   29   54 1
  54   29   55 1
  55   29   56 1
  56   30   31 1
  57   30   32 1
  58   30   33 1

#	End of record

