#	Name: ASD01908342
#	Creating user name:	WinNT
#	Creation time:	15. 06. 2019 19:54

#	Modifying user name:	WinNT
#	Modification time:	15. 06. 2019 19:54

#	Program:	/corina/corina34_cracker 3.40 0067  02.08.2006

@<TRIPOS>MOLECULE
ASD01908342
  46   49    0    0    0
SMALL
NO_CHARGES


@<TRIPOS>ATOM
   1 S1            -0.0227     1.7556    -0.0029 S.3     
   2 C2             0.0020    -0.0056    -0.0255 C.2     
   3 N3             1.2386    -0.4160    -0.0335 N.2     
   4 C4             2.1756     0.5102    -0.0237 C.2     
   5 C5             1.7395     1.7779    -0.0064 C.2     
   6 N6             3.5426     0.1902    -0.0303 N.pl3   
   7 C7             3.9464    -1.1367     0.0636 C.ar    
   8 C8             5.2953    -1.4573    -0.0559 C.ar    
   9 C9             5.6829    -2.7813     0.0400 C.ar    
  10 C10            4.7052    -3.7445     0.2531 C.ar    
  11 C11            3.3853    -3.3556     0.3621 C.ar    
  12 N12            3.0446    -2.0840     0.2715 N.ar    
  13 N13           -2.4772    -2.6524    -0.0529 N.pl3   
  14 N14           -3.2964    -1.5172    -0.0369 N.2     
  15 C15           -2.5363    -0.4551    -0.0253 C.2     
  16 C16           -1.1912    -0.8795    -0.0337 C.2     
  17 C17           -1.1922    -2.2463    -0.0508 C.2     
  18 C18           -3.0132     0.9744    -0.0072 C.3     
  19 F19           -4.4069     0.9995     0.1112 F       
  20 F20           -2.4407     1.6432     1.0801 F       
  21 F21           -2.6346     1.6074    -1.1959 F       
  22 C22           -2.9378    -4.0430    -0.0637 C.3     
  23 C23           -3.8627    -4.2750     1.1032 C.ar    
  24 C24           -5.2219    -4.0660     0.9586 C.ar    
  25 C25           -6.0719    -4.2779     2.0268 C.ar    
  26 C26           -5.5608    -4.7007     3.2453 C.ar    
  27 C27           -4.1967    -4.9096     3.3877 C.ar    
  28 C28           -3.3515    -4.7017     2.3149 C.ar    
  29 O29           -6.3949    -4.9094     4.2977 O.3     
  30 C30           -5.7989    -5.3442     5.5215 C.3     
  31 H31            2.3612     2.6610     0.0035 H       
  32 H32            4.2054     0.8950    -0.1004 H       
  33 H33            6.0294    -0.6827    -0.2217 H       
  34 H34            6.7225    -3.0601    -0.0491 H       
  35 H35            4.9749    -4.7873     0.3323 H       
  36 H36            2.6219    -4.1014     0.5278 H       
  37 H37           -0.3213    -2.8849    -0.0607 H       
  38 H38           -3.4695    -4.2424    -0.9941 H       
  39 H39           -2.0797    -4.7106     0.0146 H       
  40 H40           -5.6192    -3.7366     0.0100 H       
  41 H41           -7.1334    -4.1143     1.9135 H       
  42 H42           -3.7964    -5.2387     4.3353 H       
  43 H43           -2.2901    -4.8688     2.4239 H       
  44 H44           -5.2882    -6.2934     5.3599 H       
  45 H45           -5.0803    -4.5981     5.8608 H       
  46 H46           -6.5736    -5.4725     6.2774 H       
@<TRIPOS>BOND
   1    1    2 1
   2    1    5 1
   3    2    3 2
   4    2   16 1
   5    3    4 1
   6    4    5 2
   7    4    6 1
   8    5   31 1
   9    6    7 1
  10    6   32 1
  11    7    8 ar
  12    7   12 ar
  13    8    9 ar
  14    8   33 1
  15    9   10 ar
  16    9   34 1
  17   10   11 ar
  18   10   35 1
  19   11   12 ar
  20   11   36 1
  21   13   14 1
  22   13   17 1
  23   13   22 1
  24   14   15 2
  25   15   16 1
  26   15   18 1
  27   16   17 2
  28   17   37 1
  29   18   19 1
  30   18   20 1
  31   18   21 1
  32   22   23 1
  33   22   38 1
  34   22   39 1
  35   23   24 ar
  36   23   28 ar
  37   24   25 ar
  38   24   40 1
  39   25   26 ar
  40   25   41 1
  41   26   27 ar
  42   26   29 1
  43   27   28 ar
  44   27   42 1
  45   28   43 1
  46   29   30 1
  47   30   44 1
  48   30   45 1
  49   30   46 1

#	End of record

