#	Name: ASD01230194
#	Creating user name:	WinNT
#	Creation time:	15. 06. 2019 19:12

#	Modifying user name:	WinNT
#	Modification time:	15. 06. 2019 19:12

#	Program:	/corina/corina34_cracker 3.40 0067  02.08.2006

@<TRIPOS>MOLECULE
ASD01230194
  19   19    0    0    0
SMALL
NO_CHARGES


@<TRIPOS>ATOM
   1 N1            -0.0015     1.8381    -0.0072 N.3     
   2 Pd2            0.0017    -0.0212    -0.0178 Du      
   3 N3             1.8397    -0.3173     0.0335 N.3     
   4 C4             2.2804     1.0049     0.5830 C.3     
   5 C5             1.4591     2.1311    -0.0592 C.3     
   6 O6            -0.7863    -0.6668     1.3928 O.3     
   7 O7            -0.7036    -0.6503    -1.4787 O.3     
   8 N8            -2.1086    -0.1962     1.5800 N.pl3   
   9 N9            -0.6229    -2.0590    -1.5970 N.pl3   
  10 O10           -2.5603     0.6608     0.8416 O.2     
  11 O11           -2.7944    -0.6482     2.4793 O.2     
  12 O12           -0.1798    -2.7230    -0.6770 O.2     
  13 O13           -0.9966    -2.6068    -2.6187 O.2     
  14 H14           -0.4728     2.2035    -0.8210 H       
  15 H15            2.0676    -1.0671     0.6690 H       
  16 H16            2.1308     1.0171     1.6626 H       
  17 H17            3.3372     1.1555     0.3624 H       
  18 H18            1.7630     2.2452    -1.0998 H       
  19 H19            1.6550     3.0627     0.4716 H       
@<TRIPOS>BOND
   1    1    2 1
   2    1    5 1
   3    1   14 1
   4    2    3 1
   5    2    6 1
   6    2    7 1
   7    3    4 1
   8    3   15 1
   9    4    5 1
  10    4   16 1
  11    4   17 1
  12    5   18 1
  13    5   19 1
  14    6    8 1
  15    7    9 1
  16    8   10 2
  17    8   11 2
  18    9   12 2
  19    9   13 2

#	End of record

