#	Name: ASD01918521
#	Creating user name:	WinNT
#	Creation time:	15. 06. 2019 20:11

#	Modifying user name:	WinNT
#	Modification time:	15. 06. 2019 20:11

#	Program:	/corina/corina34_cracker 3.40 0067  02.08.2006

@<TRIPOS>MOLECULE
ASD01918521
  41   43    0    0    0
SMALL
NO_CHARGES


@<TRIPOS>ATOM
   1 C1             0.0694     1.3556    -0.6132 C.3     
   2 C2             0.0034    -0.0061     0.0291 C.2     
   3 O3             0.9926    -0.4818     0.5453 O.2     
   4 C4            -1.2584    -0.7570     0.0300 C.ar    
   5 C5            -2.4005    -0.2121    -0.5705 C.ar    
   6 C6            -3.5722    -0.9141    -0.5672 C.ar    
   7 C7            -3.6324    -2.1696     0.0319 C.ar    
   8 N8            -4.8288    -2.8816     0.0328 N.am    
   9 C9            -4.8135    -4.2253    -0.0707 C.2     
  10 O10           -3.7637    -4.8084    -0.2619 O.2     
  11 C11           -6.0692    -4.9879     0.0480 C.2     
  12 C12           -7.4150    -4.4481     0.2709 C.2     
  13 C13           -8.2430    -5.5215     0.3089 C.2     
  14 O14           -7.5145    -6.6387     0.1299 O.3     
  15 C15           -6.2212    -6.3429    -0.0329 C.2     
  16 C16           -5.1144    -7.3392    -0.2642 C.3     
  17 C17           -9.7062    -5.4723     0.5141 C.ar    
  18 C18          -10.2412    -4.7359     1.5717 C.ar    
  19 C19          -11.6078    -4.6937     1.7575 C.ar    
  20 C20          -12.4478    -5.3796     0.8986 C.ar    
  21 C21          -11.9249    -6.1123    -0.1521 C.ar    
  22 C22          -10.5598    -6.1581    -0.3533 C.ar    
  23 Cl23          -9.9053    -7.0716    -1.6766 Cl      
  24 C24           -2.4994    -2.7154     0.6296 C.ar    
  25 C25           -1.3221    -2.0227     0.6264 C.ar    
  26 H26            1.0791     1.7546    -0.5160 H       
  27 H27           -0.1881     1.2721    -1.6691 H       
  28 H28           -0.6349     2.0249    -0.1192 H       
  29 H29           -2.3548     0.7618    -1.0351 H       
  30 H30           -4.4534    -0.4946    -1.0297 H       
  31 H31           -5.6735    -2.4105     0.1080 H       
  32 H32           -7.6898    -3.4095     0.3820 H       
  33 H33           -4.7045    -7.6560     0.6948 H       
  34 H34           -5.5102    -8.2055    -0.7942 H       
  35 H35           -4.3279    -6.8766    -0.8605 H       
  36 H36           -9.5869    -4.2004     2.2436 H       
  37 H37          -12.0227    -4.1239     2.5758 H       
  38 H38          -13.5166    -5.3432     1.0491 H       
  39 H39          -12.5861    -6.6461    -0.8186 H       
  40 H40           -2.5506    -3.6895     1.0932 H       
  41 H41           -0.4427    -2.4488     1.0864 H       
@<TRIPOS>BOND
   1    1    2 1
   2    1   26 1
   3    1   27 1
   4    1   28 1
   5    2    3 2
   6    2    4 1
   7    4   25 ar
   8    4    5 ar
   9    5    6 ar
  10    5   29 1
  11    6    7 ar
  12    6   30 1
  13    7    8 1
  14    7   24 ar
  15    8    9 am
  16    8   31 1
  17    9   10 2
  18    9   11 1
  19   11   15 2
  20   11   12 1
  21   12   13 2
  22   12   32 1
  23   13   14 1
  24   13   17 1
  25   14   15 1
  26   15   16 1
  27   16   33 1
  28   16   34 1
  29   16   35 1
  30   17   22 ar
  31   17   18 ar
  32   18   19 ar
  33   18   36 1
  34   19   20 ar
  35   19   37 1
  36   20   21 ar
  37   20   38 1
  38   21   22 ar
  39   21   39 1
  40   22   23 1
  41   24   25 ar
  42   24   40 1
  43   25   41 1

#	End of record

