#	Name: ASD01870110
#	Creating user name:	WinNT
#	Creation time:	15. 06. 2019 19:38

#	Modifying user name:	WinNT
#	Modification time:	15. 06. 2019 19:38

#	Program:	/corina/corina34_cracker 3.40 0067  02.08.2006

@<TRIPOS>MOLECULE
ASD01870110
  55   59    0    0    0
SMALL
NO_CHARGES


@<TRIPOS>ATOM
   1 N1             0.0905     1.4884     0.2972 N.am    
   2 C2            -0.0791     0.0790    -0.0877 C.3     
   3 C3             1.4488     2.0525     0.2920 C.3     
   4 C4             2.3641     1.1251     1.0984 C.3     
   5 N5             2.2573    -0.2421     0.5718 N.3     
   6 C6             0.8964    -0.7707     0.7336 C.3     
   7 C7             3.1918    -1.0805     1.1690 C.ar    
   8 C8             4.5631    -0.8942     0.9444 C.ar    
   9 C9             2.7813    -2.1172     2.0062 C.ar    
  10 C10            3.7484    -2.9245     2.5778 C.ar    
  11 C11            5.0869    -2.6838     2.3057 C.ar    
  12 N12            5.4532    -1.6978     1.5173 N.ar    
  13 C13            5.0071     0.1677     0.0925 C.1     
  14 N14            5.3594     1.0101    -0.5833 N.1     
  15 C15           -0.9713     2.2444     0.6401 C.2     
  16 C16           -1.5150    -0.3634     0.2010 C.3     
  17 C17           -0.7640     3.6466     1.1518 C.3     
  18 O18           -2.0935     1.7962     0.5368 O.2     
  19 C19           -2.1181     4.2675     1.5008 C.3     
  20 C20           -1.9077     5.6911     2.0203 C.3     
  21 C21           -1.0268     5.6528     3.2706 C.3     
  22 C22            0.3273     5.0319     2.9216 C.3     
  23 C23            0.1169     3.6082     2.4021 C.3     
  24 C24           -1.2241     6.5323     0.9404 C.3     
  25 C25            0.1300     5.9114     0.5914 C.3     
  26 C26            1.0109     5.8730     1.8418 C.3     
  27 C27           -0.0804     4.4877     0.0719 C.3     
  28 H28            0.1335    -0.0385    -1.1503 H       
  29 H29            1.8116     2.1241    -0.7333 H       
  30 H30            1.4360     3.0421     0.7488 H       
  31 H31            3.3953     1.4681     1.0136 H       
  32 H32            2.0617     1.1361     2.1456 H       
  33 H33            0.6144    -0.7333     1.7859 H       
  34 H34            0.8630    -1.8027     0.3843 H       
  35 H35            1.7331    -2.2857     2.2041 H       
  36 H36            3.4633    -3.7358     3.2311 H       
  37 H37            5.8412    -3.3146     2.7524 H       
  38 H38           -2.1958     0.1431    -0.4831 H       
  39 H39           -1.5976    -1.4416     0.0638 H       
  40 H40           -1.7746    -0.1070     1.2281 H       
  41 H41           -2.7457     4.2948     0.6100 H       
  42 H42           -2.6051     3.6683     2.2701 H       
  43 H43           -2.8724     6.1335     2.2689 H       
  44 H44           -0.8769     6.6670     3.6407 H       
  45 H45           -1.5138     5.0535     4.0399 H       
  46 H46            0.9549     5.0045     3.8124 H       
  47 H47           -0.3701     3.0090     3.1714 H       
  48 H48            1.0816     3.1659     2.1535 H       
  49 H49           -1.8517     6.5596     0.0496 H       
  50 H50           -1.0742     7.5465     1.3105 H       
  51 H51            0.6170     6.5106    -0.1779 H       
  52 H52            1.1608     6.8872     2.2119 H       
  53 H53            1.9756     5.4307     1.5931 H       
  54 H54            0.8843     4.0454    -0.1767 H       
  55 H55           -0.7080     4.5151    -0.8189 H       
@<TRIPOS>BOND
   1    1    2 1
   2    1    3 1
   3    1   15 am
   4    2   16 1
   5    2    6 1
   6    2   28 1
   7    3    4 1
   8    3   29 1
   9    3   30 1
  10    4    5 1
  11    4   31 1
  12    4   32 1
  13    5    6 1
  14    5    7 1
  15    6   33 1
  16    6   34 1
  17    7    8 ar
  18    7    9 ar
  19    8   13 1
  20    8   12 ar
  21    9   10 ar
  22    9   35 1
  23   10   11 ar
  24   10   36 1
  25   11   12 ar
  26   11   37 1
  27   13   14 3
  28   15   17 1
  29   15   18 2
  30   16   38 1
  31   16   39 1
  32   16   40 1
  33   17   19 1
  34   17   23 1
  35   17   27 1
  36   19   20 1
  37   19   41 1
  38   19   42 1
  39   20   21 1
  40   20   24 1
  41   20   43 1
  42   21   22 1
  43   21   44 1
  44   21   45 1
  45   22   23 1
  46   22   26 1
  47   22   46 1
  48   23   47 1
  49   23   48 1
  50   24   25 1
  51   24   49 1
  52   24   50 1
  53   25   26 1
  54   25   27 1
  55   25   51 1
  56   26   52 1
  57   26   53 1
  58   27   54 1
  59   27   55 1

#	End of record

