#	Name: ASD02500250
#	Creating user name:	WinNT
#	Creation time:	15. 06. 2019 20:22

#	Modifying user name:	WinNT
#	Modification time:	15. 06. 2019 20:22

#	Program:	/corina/corina34_cracker 3.40 0067  02.08.2006

@<TRIPOS>MOLECULE
ASD02500250
  62   66    0    0    0
SMALL
NO_CHARGES


@<TRIPOS>ATOM
   1 N1            -1.0176     3.4326     2.8340 N.ar    
   2 C2            -2.1316     3.9237     3.3200 C.ar    
   3 C3            -2.8081     3.3068     4.3703 C.ar    
   4 C4            -2.3122     2.1590     4.9199 C.ar    
   5 C5            -1.1160     1.6342     4.3950 C.ar    
   6 C6            -0.5458     0.4587     4.9088 C.ar    
   7 C7             0.6128    -0.0167     4.3740 C.ar    
   8 C8             1.2409     0.6484     3.3233 C.ar    
   9 C9             0.7159     1.7905     2.8011 C.ar    
  10 C10           -0.4788     2.3125     3.3263 C.ar    
  11 S11            1.5313     2.6119     1.4727 S.o2    
  12 O12            1.6857     3.9666     1.8728 O.2     
  13 O13            2.6230     1.7830     1.0980 O.2     
  14 N14            0.4877     2.6201     0.1869 N.am    
  15 C15            0.0096     1.4201    -0.3282 C.ar    
  16 C16           -1.3206     1.3143    -0.7163 C.ar    
  17 C17           -1.7962     0.1207    -1.2292 C.ar    
  18 C18           -0.9291    -0.9766    -1.3537 C.ar    
  19 C19            0.4069    -0.8541    -0.9586 C.ar    
  20 C20            0.8674     0.3298    -0.4587 C.ar    
  21 C21           -1.4246    -2.2518    -1.8977 C.2     
  22 O22           -2.3924    -2.7917    -1.3965 O.2     
  23 N23           -0.8058    -2.8209    -2.9511 N.am    
  24 C24           -1.3284    -4.0588    -3.5464 C.3     
  25 C25           -1.5627    -3.8218    -5.0434 C.3     
  26 N26           -0.3535    -3.2153    -5.6178 N.am    
  27 C27            0.1691    -1.9774    -5.0225 C.3     
  28 C28            0.4002    -2.2113    -3.5290 C.3     
  29 C29            0.2653    -3.7843    -6.6712 C.2     
  30 O30           -0.0717    -4.8887    -7.0499 O.2     
  31 C31            1.3563    -3.0634    -7.3675 C.ar    
  32 C32            2.1040    -3.7087    -8.3519 C.ar    
  33 N33            1.6219    -1.7971    -7.0593 N.ar    
  34 N34            3.0754    -3.0616    -8.9701 N.ar    
  35 C35            3.3383    -1.8052    -8.6566 C.ar    
  36 C36            2.5930    -1.1588    -7.6812 C.ar    
  37 O37           -3.0938     0.0108    -1.6094 O.3     
  38 C38           -3.9160     1.1690    -1.4528 C.3     
  39 H39           -2.5355     4.8308     2.8953 H       
  40 H40           -3.7236     3.7360     4.7497 H       
  41 H41           -2.8234     1.6678     5.7346 H       
  42 H42           -1.0231    -0.0653     5.7236 H       
  43 H43            1.0507    -0.9211     4.7699 H       
  44 H44            2.1594     0.2517     2.9168 H       
  45 H45            0.2099     3.4619    -0.2069 H       
  46 H46           -1.9820     2.1623    -0.6174 H       
  47 H47            1.0765    -1.6963    -1.0531 H       
  48 H48            1.9010     0.4207    -0.1592 H       
  49 H49           -0.6050    -4.8630    -3.4121 H       
  50 H50           -2.2699    -4.3263    -3.0666 H       
  51 H51           -1.7649    -4.7724    -5.5370 H       
  52 H52           -2.4093    -3.1489    -5.1792 H       
  53 H53            1.1106    -1.7098    -5.5023 H       
  54 H54           -0.5543    -1.1731    -5.1568 H       
  55 H55            0.6000    -1.2590    -3.0377 H       
  56 H56            1.2494    -2.8809    -3.3934 H       
  57 H57            1.8894    -4.7357    -8.6080 H       
  58 H58            4.1332    -1.2787    -9.1638 H       
  59 H59            2.8086    -0.1305    -7.4313 H       
  60 H60           -3.9422     1.4566    -0.4017 H       
  61 H61           -3.5061     1.9882    -2.0435 H       
  62 H62           -4.9270     0.9457    -1.7937 H       
@<TRIPOS>BOND
   1    1    2 ar
   2    1   10 ar
   3    2    3 ar
   4    2   39 1
   5    3    4 ar
   6    3   40 1
   7    4    5 ar
   8    4   41 1
   9    5    6 ar
  10    5   10 ar
  11    6    7 ar
  12    6   42 1
  13    7    8 ar
  14    7   43 1
  15    8    9 ar
  16    8   44 1
  17    9   10 ar
  18    9   11 1
  19   11   12 2
  20   11   13 2
  21   11   14 am
  22   14   15 1
  23   14   45 1
  24   15   16 ar
  25   15   20 ar
  26   16   17 ar
  27   16   46 1
  28   17   18 ar
  29   17   37 1
  30   18   19 ar
  31   18   21 1
  32   19   20 ar
  33   19   47 1
  34   20   48 1
  35   21   22 2
  36   21   23 am
  37   23   24 1
  38   23   28 1
  39   24   25 1
  40   24   49 1
  41   24   50 1
  42   25   26 1
  43   25   51 1
  44   25   52 1
  45   26   27 1
  46   26   29 am
  47   27   28 1
  48   27   53 1
  49   27   54 1
  50   28   55 1
  51   28   56 1
  52   29   30 2
  53   29   31 1
  54   31   32 ar
  55   31   33 ar
  56   32   34 ar
  57   32   57 1
  58   33   36 ar
  59   34   35 ar
  60   35   36 ar
  61   35   58 1
  62   36   59 1
  63   37   38 1
  64   38   60 1
  65   38   61 1
  66   38   62 1

#	End of record

