#	Name: ASD01915920
#	Creating user name:	WinNT
#	Creation time:	15. 06. 2019 20:06

#	Modifying user name:	WinNT
#	Modification time:	15. 06. 2019 20:06

#	Program:	/corina/corina34_cracker 3.40 0067  02.08.2006

@<TRIPOS>MOLECULE
ASD01915920
  41   44    0    0    0
SMALL
NO_CHARGES


@<TRIPOS>ATOM
   1 C1            -0.0167     1.3778     0.0096 C.2     
   2 C2             0.0021    -0.0041     0.0020 C.2     
   3 C3            -1.3061    -0.7781    -0.0014 C.3     
   4 C4            -2.3692     0.0496     0.7181 C.3     
   5 N5            -2.4010     1.4359     0.2673 N.am    
   6 C6            -1.2676     2.1378     0.0348 C.2     
   7 O7            -1.2873     3.3419    -0.1445 O.2     
   8 S8             1.6346     1.9576    -0.0030 S.3     
   9 C9             2.2093     0.3463    -0.0096 C.2     
  10 N10            1.2158    -0.4933    -0.0052 N.2     
  11 C11            4.4732     1.0547    -0.0212 C.3     
  12 C12            5.8643     0.4753    -0.0308 C.ar    
  13 C13            6.4943     0.2127    -1.2341 C.ar    
  14 C14            6.5089     0.2132     1.1606 C.ar    
  15 C15            7.7978    -0.3232     1.1499 C.ar    
  16 C16            8.4258    -0.5908    -0.0685 C.ar    
  17 C17            7.7718    -0.3189    -1.2520 C.ar    
  18 O18            3.5154    -0.0058    -0.0181 O.3     
  19 C19           -4.2503     2.7395     1.1131 C.ar    
  20 C20           -3.6399     2.0589     0.0692 C.ar    
  21 C21           -5.4723     3.3538     0.9157 C.ar    
  22 C22           -6.0888     3.2909    -0.3222 C.ar    
  23 C23           -5.4825     2.6130    -1.3667 C.ar    
  24 C24           -4.2599     1.9967    -1.1743 C.ar    
  25 F25           -7.2839     3.8918    -0.5117 F       
  26 F26           -3.6681     1.3353    -2.1929 F       
  27 C27            8.4730    -0.5974     2.3826 C.1     
  28 N28            9.0087    -0.8149     3.3604 N.1     
  29 H29           -1.6194    -0.9615    -1.0292 H       
  30 H30           -1.1701    -1.7277     0.5162 H       
  31 H31           -3.3459    -0.4008     0.5409 H       
  32 H32           -2.1645     0.0319     1.7886 H       
  33 H33            4.3406     1.6667     0.8710 H       
  34 H34            4.3302     1.6709    -0.9089 H       
  35 H35            5.9866     0.4233    -2.1638 H       
  36 H36            6.0177     0.4228     2.0993 H       
  37 H37            9.4229    -1.0054    -0.0839 H       
  38 H38            8.2563    -0.5254    -2.1949 H       
  39 H39           -3.7727     2.7852     2.0806 H       
  40 H40           -5.9472     3.8834     1.7284 H       
  41 H41           -5.9652     2.5652    -2.3316 H       
@<TRIPOS>BOND
   1    1    2 2
   2    1    8 1
   3    1    6 1
   4    2    3 1
   5    2   10 1
   6    3    4 1
   7    3   29 1
   8    3   30 1
   9    4    5 1
  10    4   31 1
  11    4   32 1
  12    5    6 am
  13    5   20 1
  14    6    7 2
  15    8    9 1
  16    9   10 2
  17    9   18 1
  18   11   12 1
  19   11   18 1
  20   11   33 1
  21   11   34 1
  22   12   13 ar
  23   12   14 ar
  24   13   17 ar
  25   13   35 1
  26   14   15 ar
  27   14   36 1
  28   15   16 ar
  29   15   27 1
  30   16   17 ar
  31   16   37 1
  32   17   38 1
  33   19   21 ar
  34   19   20 ar
  35   19   39 1
  36   20   24 ar
  37   21   22 ar
  38   21   40 1
  39   22   23 ar
  40   22   25 1
  41   23   24 ar
  42   23   41 1
  43   24   26 1
  44   27   28 3

#	End of record

