#	Name: ASD09120003
#	Creating user name:	WinNT
#	Creation time:	15. 06. 2019 21:21

#	Modifying user name:	WinNT
#	Modification time:	15. 06. 2019 21:21

#	Program:	/corina/corina34_cracker 3.40 0067  02.08.2006

@<TRIPOS>MOLECULE
ASD09120003
  43   46    0    0    0
SMALL
NO_CHARGES


@<TRIPOS>ATOM
   1 Cl1           -4.0146    -2.6869    -6.5370 Cl      
   2 Cl2           -3.3940    -3.4166     1.1010 Cl      
   3 Cl3            3.3167    -7.3173     1.7330 Cl      
   4 S4            -3.3038     0.6069    -1.2766 S.3     
   5 C5            -2.3243    -0.7763    -0.8094 C.2     
   6 N6            -2.3002    -1.6498    -1.7582 N.2     
   7 C7            -2.9881    -1.3761    -2.8841 C.ar    
   8 C8            -3.6406    -0.1407    -2.8362 C.ar    
   9 C9            -3.1177    -2.1587    -4.0514 C.ar    
  10 C10           -3.8681    -1.7095    -5.1098 C.ar    
  11 C11           -4.5103    -0.4804    -5.0487 C.ar    
  12 C12           -4.3978     0.2992    -3.9189 C.ar    
  13 S13           -1.4929    -0.9448     0.7349 S.3     
  14 C14            0.9638    -4.0728     0.1422 C.ar    
  15 C15            0.1158    -5.1601     0.3058 C.ar    
  16 C16           -1.2262    -4.9564     0.6013 C.ar    
  17 C17           -1.7169    -3.6719     0.7323 C.ar    
  18 C18           -0.8675    -2.5836     0.5684 C.ar    
  19 C19            0.4736    -2.7883     0.2731 C.ar    
  20 S20            0.2280    -7.6141     1.2975 S.o2    
  21 O21           -1.1880    -7.6020     1.4161 O.2     
  22 O22            0.9690    -8.7761     0.9512 O.2     
  23 N23            0.6130    -6.4614     0.1726 N.am    
  24 C24            0.8618    -7.0633     2.8466 C.ar    
  25 C25           -0.0046    -6.7645     3.8809 C.ar    
  26 C26            0.4925    -6.3322     5.0965 C.ar    
  27 C27            1.8562    -6.1987     5.2780 C.ar    
  28 C28            2.3973    -5.7275     6.6032 C.3     
  29 C29            2.7239    -6.4977     4.2443 C.ar    
  30 C30            2.2274    -6.9353     3.0295 C.ar    
  31 F31            2.6315    -6.8312     7.4303 F       
  32 F32            3.5958    -5.0356     6.3982 F       
  33 F33            1.4667    -4.8781     7.2114 F       
  34 H34           -2.6231    -3.1168    -4.1127 H       
  35 H35           -5.0980    -0.1356    -5.8866 H       
  36 H36           -4.8985     1.2550    -3.8725 H       
  37 H37            2.0080    -4.2318    -0.0831 H       
  38 H38           -1.8857    -5.8021     0.7282 H       
  39 H39            1.1336    -1.9430     0.1462 H       
  40 H40            1.1831    -6.6882    -0.5786 H       
  41 H41           -1.0703    -6.8683     3.7396 H       
  42 H42           -0.1850    -6.0984     5.9044 H       
  43 H43            3.7895    -6.3937     4.3863 H       
@<TRIPOS>BOND
   1    1   10 1
   2    2   17 1
   3    3   30 1
   4    4    5 1
   5    4    8 1
   6    5    6 2
   7    5   13 1
   8    6    7 1
   9    7    8 ar
  10    7    9 ar
  11    8   12 ar
  12    9   10 ar
  13    9   34 1
  14   10   11 ar
  15   11   12 ar
  16   11   35 1
  17   12   36 1
  18   13   18 1
  19   14   15 ar
  20   14   19 ar
  21   14   37 1
  22   15   16 ar
  23   15   23 1
  24   16   17 ar
  25   16   38 1
  26   17   18 ar
  27   18   19 ar
  28   19   39 1
  29   20   21 2
  30   20   22 2
  31   20   23 am
  32   20   24 1
  33   23   40 1
  34   24   25 ar
  35   24   30 ar
  36   25   26 ar
  37   25   41 1
  38   26   27 ar
  39   26   42 1
  40   27   28 1
  41   27   29 ar
  42   28   31 1
  43   28   32 1
  44   28   33 1
  45   29   30 ar
  46   29   43 1

#	End of record

