#	Name: ASD01912307
#	Creating user name:	WinNT
#	Creation time:	15. 06. 2019 19:59

#	Modifying user name:	WinNT
#	Modification time:	15. 06. 2019 19:59

#	Program:	/corina/corina34_cracker 3.40 0067  02.08.2006

@<TRIPOS>MOLECULE
ASD01912307
  42   44    0    0    0
SMALL
NO_CHARGES


@<TRIPOS>ATOM
   1 C1            -0.0159     1.3943    -0.0406 C.ar    
   2 C2             0.0301     0.0208     0.1955 C.ar    
   3 N3             1.1033     2.0539    -0.3257 N.ar    
   4 N4             1.1841    -0.6188     0.1352 N.ar    
   5 C5             2.2930     0.0414    -0.1484 C.ar    
   6 C6             2.2506     1.4079    -0.3839 C.ar    
   7 C7            -1.3085     2.1156     0.0197 C.2     
   8 O8            -2.3528     1.4962    -0.0291 O.2     
   9 N9            -1.3262     3.4588     0.1289 N.am    
  10 C10           -2.5929     4.1954     0.0299 C.3     
  11 C11           -2.7904     5.0124     1.3131 C.3     
  12 C12           -1.5179     5.7824     1.5904 C.2     
  13 C13           -0.2121     5.0199     1.6394 C.3     
  14 C14           -0.0799     4.2022     0.3541 C.3     
  15 C15           -1.5465     7.0999     1.7864 C.2     
  16 C16           -0.3316     7.8114     2.0477 C.1     
  17 C17            0.6644     8.3948     2.2618 C.1     
  18 C18            1.8794     9.1064     2.5231 C.ar    
  19 C19            1.8438    10.4888     2.7280 C.ar    
  20 C20            3.0259    11.1606     2.9791 C.ar    
  21 C21            4.2078    10.4324     3.0181 C.ar    
  22 C22            4.1719     9.0663     2.8066 C.ar    
  23 N23            3.0330     8.4467     2.5744 N.ar    
  24 C24            5.4533     8.2742     2.8484 C.3     
  25 H25           -0.8761    -0.5189     0.4277 H       
  26 H26            3.2352    -0.4843    -0.1970 H       
  27 H27            3.1595     1.9433    -0.6157 H       
  28 H28           -2.5595     4.8660    -0.8287 H       
  29 H29           -3.4169     3.4914    -0.0855 H       
  30 H30           -3.6190     5.7083     1.1812 H       
  31 H31           -3.0027     4.3420     2.1459 H       
  32 H32            0.6193     5.7205     1.7175 H       
  33 H33           -0.2102     4.3501     2.4993 H       
  34 H34            0.7502     3.5026     0.4520 H       
  35 H35            0.1022     4.8732    -0.4854 H       
  36 H36           -2.4860     7.6312     1.7482 H       
  37 H37            0.9066    11.0242     2.6904 H       
  38 H38            3.0300    12.2284     3.1410 H       
  39 H39            5.1471    10.9290     3.2116 H       
  40 H40            5.6349     7.9305     3.8668 H       
  41 H41            5.3707     7.4141     2.1840 H       
  42 H42            6.2811     8.9051     2.5248 H       
@<TRIPOS>BOND
   1    1    2 ar
   2    1    3 ar
   3    1    7 1
   4    2    4 ar
   5    2   25 1
   6    3    6 ar
   7    4    5 ar
   8    5    6 ar
   9    5   26 1
  10    6   27 1
  11    7    8 2
  12    7    9 am
  13    9   10 1
  14    9   14 1
  15   10   11 1
  16   10   28 1
  17   10   29 1
  18   11   12 1
  19   11   30 1
  20   11   31 1
  21   12   13 1
  22   12   15 2
  23   13   14 1
  24   13   32 1
  25   13   33 1
  26   14   34 1
  27   14   35 1
  28   15   16 1
  29   15   36 1
  30   16   17 3
  31   17   18 1
  32   18   19 ar
  33   18   23 ar
  34   19   20 ar
  35   19   37 1
  36   20   21 ar
  37   20   38 1
  38   21   22 ar
  39   21   39 1
  40   22   23 ar
  41   22   24 1
  42   24   40 1
  43   24   41 1
  44   24   42 1

#	End of record

