#	Name: ASD08170725
#	Creating user name:	WinNT
#	Creation time:	15. 06. 2019 21:17

#	Modifying user name:	WinNT
#	Modification time:	15. 06. 2019 21:17

#	Program:	/corina/corina34_cracker 3.40 0067  02.08.2006

@<TRIPOS>MOLECULE
ASD08170725
  64   67    0    0    0
SMALL
NO_CHARGES


@<TRIPOS>ATOM
   1 N1            -0.0159     1.3148     0.0224 N.ar    
   2 C2             0.0017    -0.0034     0.0124 C.ar    
   3 C3            -1.2931    -0.7743     0.0243 C.3     
   4 C4            -2.1384    -0.3331     1.2208 C.3     
   5 C5            -3.4530    -1.1158     1.2329 C.3     
   6 C6            -4.2983    -0.6746     2.4294 C.3     
   7 C7            -5.5932    -1.4455     2.4412 C.2     
   8 C8             1.2126    -0.6810    -0.0095 C.ar    
   9 C9             2.3785     0.0686    -0.0202 C.ar    
  10 C10            2.2614     1.4576    -0.0083 C.ar    
  11 N11            1.0600     2.0146     0.0126 N.ar    
  12 N12            3.4039     2.2569    -0.0179 N.am    
  13 N13           -5.8033    -2.5767     3.0361 N.2     
  14 N14           -6.9625    -3.0651     2.9277 N.2     
  15 C15           -7.8359    -2.3975     2.2358 C.2     
  16 S16           -7.0970    -0.9657     1.6538 S.3     
  17 N17           -9.1540    -2.7791     2.0098 N.am    
  18 C18           -9.6205    -3.9317     2.5297 C.2     
  19 O19           -8.8908    -4.6362     3.1947 O.2     
  20 C20          -11.0488    -4.3452     2.2847 C.3     
  21 C21            3.2884     3.5964    -0.1113 C.2     
  22 O22            2.1986     4.1007    -0.2811 O.2     
  23 C23            4.5135     4.4676    -0.0047 C.3     
  24 C24            4.1144     5.9144    -0.1409 C.ar    
  25 C25            3.7788     6.6474     0.9817 C.ar    
  26 C26            3.4127     7.9747     0.8568 C.ar    
  27 C27            3.3826     8.5688    -0.3909 C.ar    
  28 C28            3.7191     7.8358    -1.5138 C.ar    
  29 C29            4.0894     6.5101    -1.3884 C.ar    
  30 C30          -11.3154    -5.6610     2.9693 C.ar    
  31 C31          -11.9666    -5.6864     4.1876 C.ar    
  32 C32          -12.2114    -6.8954     4.8166 C.ar    
  33 C33          -11.8038    -8.0786     4.2249 C.ar    
  34 C34          -11.1523    -8.0532     3.0063 C.ar    
  35 C35          -10.9126    -6.8449     2.3747 C.ar    
  36 F36          -12.8478    -6.9203     6.0081 F       
  37 F37          -10.2762    -6.8200     1.1832 F       
  38 C38            3.0459     8.7736     2.0808 C.3     
  39 F39            4.1930     9.3820     2.6016 F       
  40 F40            2.1133     9.7569     1.7336 F       
  41 F41            2.4908     7.9236     3.0434 F       
  42 H42           -1.8401    -0.5802    -0.8983 H       
  43 H43           -1.0805    -1.8405     0.1031 H       
  44 H44           -1.5915    -0.5273     2.1434 H       
  45 H45           -2.3511     0.7330     1.1420 H       
  46 H46           -4.0000    -0.9216     0.3102 H       
  47 H47           -3.2404    -2.1820     1.3117 H       
  48 H48           -3.7514    -0.8687     3.3520 H       
  49 H49           -4.5110     0.3916     2.3506 H       
  50 H50            1.2455    -1.7605    -0.0176 H       
  51 H51            3.3473    -0.4085    -0.0369 H       
  52 H52            4.2818     1.8488     0.0427 H       
  53 H53           -9.7376    -2.2157     1.4779 H       
  54 H54          -11.7206    -3.5853     2.6839 H       
  55 H55          -11.2173    -4.4524     1.2132 H       
  56 H56            4.9874     4.3111     0.9643 H       
  57 H57            5.2142     4.2077    -0.7981 H       
  58 H58            3.8023     6.1832     1.9566 H       
  59 H59            3.0959     9.6054    -0.4886 H       
  60 H60            3.6953     8.2999    -2.4887 H       
  61 H61            4.3523     5.9375    -2.2656 H       
  62 H62          -12.2843    -4.7633     4.6494 H       
  63 H63          -11.9944    -9.0216     4.7157 H       
  64 H64          -10.8340    -8.9762     2.5447 H       
@<TRIPOS>BOND
   1    1    2 ar
   2    1   11 ar
   3    2    3 1
   4    2    8 ar
   5    3    4 1
   6    3   42 1
   7    3   43 1
   8    4    5 1
   9    4   44 1
  10    4   45 1
  11    5    6 1
  12    5   46 1
  13    5   47 1
  14    6    7 1
  15    6   48 1
  16    6   49 1
  17    7   13 2
  18    7   16 1
  19    8    9 ar
  20    8   50 1
  21    9   10 ar
  22    9   51 1
  23   10   11 ar
  24   10   12 1
  25   12   21 am
  26   12   52 1
  27   13   14 1
  28   14   15 2
  29   15   16 1
  30   15   17 1
  31   17   18 am
  32   17   53 1
  33   18   19 2
  34   18   20 1
  35   20   30 1
  36   20   54 1
  37   20   55 1
  38   21   22 2
  39   21   23 1
  40   23   24 1
  41   23   56 1
  42   23   57 1
  43   24   25 ar
  44   24   29 ar
  45   25   26 ar
  46   25   58 1
  47   26   27 ar
  48   26   38 1
  49   27   28 ar
  50   27   59 1
  51   28   29 ar
  52   28   60 1
  53   29   61 1
  54   30   31 ar
  55   30   35 ar
  56   31   32 ar
  57   31   62 1
  58   32   33 ar
  59   32   36 1
  60   33   34 ar
  61   33   63 1
  62   34   35 ar
  63   34   64 1
  64   35   37 1
  65   38   39 1
  66   38   40 1
  67   38   41 1

#	End of record

