#	Name: ASD04880289
#	Creating user name:	WinNT
#	Creation time:	15. 06. 2019 20:53

#	Modifying user name:	WinNT
#	Modification time:	15. 06. 2019 20:53

#	Program:	/corina/corina34_cracker 3.40 0067  02.08.2006

@<TRIPOS>MOLECULE
ASD04880289
  40   43    0    0    0
SMALL
NO_CHARGES


@<TRIPOS>ATOM
   1 C1            -0.0122     1.4644     0.0381 C.3     
   2 N2             0.0038    -0.0070     0.0400 N.am    
   3 N3             1.3265    -0.4432     0.0802 N.2     
   4 C4             2.1943     0.5091     0.1054 C.2     
   5 C5             1.4816     1.8424     0.0827 C.3     
   6 C6            -1.0835    -0.8028     0.0085 C.2     
   7 C7            -0.9244    -2.2649    -0.1123 C.ar    
   8 O8            -2.1958    -0.3159     0.0796 O.2     
   9 C9             0.3407    -2.8160    -0.3324 C.ar    
  10 C10            3.6564     0.3266     0.1503 C.ar    
  11 C11            4.2016    -0.9595     0.1682 C.ar    
  12 C12            5.5696    -1.1264     0.2102 C.ar    
  13 C13            6.4060    -0.0191     0.2348 C.ar    
  14 C14            5.8687     1.2640     0.2171 C.ar    
  15 C15            4.5013     1.4400     0.1693 C.ar    
  16 F16            6.6871     2.3387     0.2412 F       
  17 O17            7.7537    -0.1889     0.2767 O.3     
  18 C18            8.2381    -1.5332     0.2933 C.3     
  19 C19           -2.0375    -3.1021    -0.0012 C.ar    
  20 C20           -1.8870    -4.4668    -0.1137 C.ar    
  21 C21           -0.6312    -5.0154    -0.3376 C.ar    
  22 C22            0.4854    -4.1851    -0.4444 C.ar    
  23 O23           -0.2262    -6.3093    -0.4835 O.3     
  24 C24            1.0764    -6.2393    -1.0926 C.3     
  25 O25            1.5867    -4.9623    -0.6619 O.3     
  26 H26           -0.4763     1.8418    -0.8731 H       
  27 H27           -0.5302     1.8435     0.9190 H       
  28 H28            1.7593     2.4092    -0.8060 H       
  29 H29            1.7054     2.4109     0.9853 H       
  30 H30            1.2040    -2.1725    -0.4151 H       
  31 H31            3.5521    -1.8222     0.1495 H       
  32 H32            5.9910    -2.1206     0.2244 H       
  33 H33            4.0842     2.4360     0.1556 H       
  34 H34            7.9056    -2.0503    -0.6068 H       
  35 H35            9.3276    -1.5264     0.3269 H       
  36 H36            7.8506    -2.0482     1.1723 H       
  37 H37           -3.0159    -2.6793     0.1733 H       
  38 H38           -2.7486    -5.1123    -0.0272 H       
  39 H39            1.7129    -7.0462    -0.7293 H       
  40 H40            0.9936    -6.2751    -2.1788 H       
@<TRIPOS>BOND
   1    1    2 1
   2    1    5 1
   3    1   26 1
   4    1   27 1
   5    2    3 1
   6    2    6 am
   7    3    4 2
   8    4    5 1
   9    4   10 1
  10    5   28 1
  11    5   29 1
  12    6    7 1
  13    6    8 2
  14    7   19 ar
  15    7    9 ar
  16    9   22 ar
  17    9   30 1
  18   10   11 ar
  19   10   15 ar
  20   11   12 ar
  21   11   31 1
  22   12   13 ar
  23   12   32 1
  24   13   14 ar
  25   13   17 1
  26   14   15 ar
  27   14   16 1
  28   15   33 1
  29   17   18 1
  30   18   34 1
  31   18   35 1
  32   18   36 1
  33   19   20 ar
  34   19   37 1
  35   20   21 ar
  36   20   38 1
  37   21   22 ar
  38   21   23 1
  39   22   25 1
  40   23   24 1
  41   24   25 1
  42   24   39 1
  43   24   40 1

#	End of record

