#	Name: ASD00460044
#	Creating user name:	WinNT
#	Creation time:	15. 06. 2019 18:36

#	Modifying user name:	WinNT
#	Modification time:	15. 06. 2019 18:36

#	Program:	/corina/corina34_cracker 3.40 0067  02.08.2006

@<TRIPOS>MOLECULE
ASD00460044
  37   39    0    0    0
SMALL
NO_CHARGES


@<TRIPOS>ATOM
   1 C1            -0.0184     1.5028     0.0103 C.2     
   2 C2             0.0021    -0.0041     0.0020 C.3     
   3 C3            -1.4117    -0.5257     0.0127 C.ar    
   4 C4            -2.2771    -0.1978    -1.0139 C.ar    
   5 N5             1.0293     2.2369     0.0042 N.2     
   6 C6             0.8613     3.5729     0.0130 C.ar    
   7 C7            -0.4924     3.9264     0.0279 C.ar    
   8 S8            -1.4420     2.4436     0.0216 S.3     
   9 C9             1.8252     4.6015     0.0094 C.ar    
  10 C10            1.4400     5.9077     0.0201 C.ar    
  11 C11            0.0955     6.2515     0.0347 C.ar    
  12 C12           -0.8678     5.2682     0.0387 C.ar    
  13 C13           -3.5741    -0.6764    -1.0041 C.ar    
  14 C14           -4.0053    -1.4829     0.0322 C.ar    
  15 C15           -3.1395    -1.8116     1.0587 C.ar    
  16 C16           -1.8415    -1.3368     1.0466 C.ar    
  17 C17           -5.4195    -2.0037     0.0434 C.3     
  18 C18           -1.8069     0.6816    -2.1438 C.3     
  19 C19            0.7182    -0.4975    -1.2568 C.3     
  20 O20            0.6932    -0.4774     1.1597 O.3     
  21 H21            2.8760     4.3521    -0.0017 H       
  22 H22            2.1897     6.6851     0.0174 H       
  23 H23           -0.1953     7.2916     0.0431 H       
  24 H24           -1.9139     5.5366     0.0501 H       
  25 H25           -4.2505    -0.4196    -1.8059 H       
  26 H26           -3.4765    -2.4416     1.8686 H       
  27 H27           -1.1651    -1.5936     1.8484 H       
  28 H28           -5.4581    -2.9613    -0.4758 H       
  29 H29           -5.7500    -2.1354     1.0737 H       
  30 H30           -6.0731    -1.2911    -0.4596 H       
  31 H31           -1.3902     0.0616    -2.9376 H       
  32 H32           -2.6490     1.2535    -2.5336 H       
  33 H33           -1.0415     1.3657    -1.7774 H       
  34 H34            1.7408    -0.1202    -1.2645 H       
  35 H35            0.7330    -1.5874    -1.2628 H       
  36 H36            0.1910    -0.1364    -2.1398 H       
  37 H37            0.2938    -0.2021     1.9962 H       
@<TRIPOS>BOND
   1    1    2 1
   2    1    5 2
   3    1    8 1
   4    2    3 1
   5    2   19 1
   6    2   20 1
   7    3    4 ar
   8    3   16 ar
   9    4   13 ar
  10    4   18 1
  11    5    6 1
  12    6    7 ar
  13    6    9 ar
  14    7    8 1
  15    7   12 ar
  16    9   10 ar
  17    9   21 1
  18   10   11 ar
  19   10   22 1
  20   11   12 ar
  21   11   23 1
  22   12   24 1
  23   13   14 ar
  24   13   25 1
  25   14   15 ar
  26   14   17 1
  27   15   16 ar
  28   15   26 1
  29   16   27 1
  30   17   28 1
  31   17   29 1
  32   17   30 1
  33   18   31 1
  34   18   32 1
  35   18   33 1
  36   19   34 1
  37   19   35 1
  38   19   36 1
  39   20   37 1

#	End of record

