#	Name: ASD03430198
#	Creating user name:	WinNT
#	Creation time:	15. 06. 2019 20:40

#	Modifying user name:	WinNT
#	Modification time:	15. 06. 2019 20:40

#	Program:	/corina/corina34_cracker 3.40 0067  02.08.2006

@<TRIPOS>MOLECULE
ASD03430198
  61   67    0    0    0
SMALL
NO_CHARGES


@<TRIPOS>ATOM
   1 C1            -0.1576     1.4480     1.2939 C.ar    
   2 C2            -1.3341     2.1323     1.0788 C.ar    
   3 C3            -2.5354     1.4562     1.0700 C.ar    
   4 C4            -2.5712     0.0809     1.2881 C.ar    
   5 C5            -1.3799    -0.6028     1.4963 C.ar    
   6 C6            -0.1653     0.0737     1.4977 C.ar    
   7 O7            -3.8520    -0.3866     1.2706 O.3     
   8 C8            -3.9576     1.8935     0.8460 C.3     
   9 C9            -4.6987     0.5707     0.6062 C.3     
  10 C10           -4.9184     3.8805     1.5166 C.ar    
  11 C11           -4.5179     2.6439     2.0174 C.ar    
  12 C12           -4.0892     2.8259    -0.3239 C.2     
  13 N13           -4.6548     3.9551     0.1468 N.am    
  14 O14           -3.7526     2.6059    -1.4682 O.2     
  15 C15           -4.6810     2.3423     3.3507 C.ar    
  16 C16           -5.2468     3.2704     4.2073 C.ar    
  17 C17           -5.6477     4.5011     3.7211 C.ar    
  18 C18           -5.4865     4.8081     2.3856 C.ar    
  19 C19           -4.9588     5.1244    -0.6818 C.3     
  20 C20            1.2868     1.9021     1.3716 C.3     
  21 C21            1.9713     0.6796     2.0275 C.3     
  22 O22            1.0987    -0.4047     1.6675 O.3     
  23 C23           -3.7747     6.0564    -0.6892 C.ar    
  24 C24           -2.7931     5.9154    -1.6541 C.ar    
  25 C25           -1.7068     6.7656    -1.6668 C.ar    
  26 C26           -1.5991     7.7698    -0.7032 C.ar    
  27 C27           -2.5929     7.9066     0.2675 C.ar    
  28 C28           -3.6767     7.0530     0.2656 C.ar    
  29 C29           -0.4376     8.6840    -0.7104 C.2     
  30 N30           -0.3367     9.6526     0.2214 N.am    
  31 O31            0.4265     8.5623    -1.5567 O.2     
  32 C32            0.8079    10.4544     0.2753 C.ar    
  33 C33            1.4568    10.8208    -0.8967 C.ar    
  34 C34            2.5866    11.6131    -0.8400 C.ar    
  35 C35            3.0721    12.0411     0.3820 C.ar    
  36 C36            2.4286    11.6777     1.5508 C.ar    
  37 C37            1.2948    10.8907     1.5007 C.ar    
  38 H38           -1.3151     3.2000     0.9173 H       
  39 H39           -1.3975    -1.6703     1.6590 H       
  40 H40           -4.7668     0.3529    -0.4597 H       
  41 H41           -5.6887     0.5936     1.0617 H       
  42 H42           -4.3675     1.3803     3.7284 H       
  43 H43           -5.3753     3.0337     5.2532 H       
  44 H44           -6.0893     5.2252     4.3896 H       
  45 H45           -5.8019     5.7715     2.0131 H       
  46 H46           -5.1735     4.8017    -1.7006 H       
  47 H47           -5.8267     5.6428    -0.2743 H       
  48 H48            1.6910     2.0874     0.3764 H       
  49 H49            1.3837     2.7869     2.0008 H       
  50 H50            2.9680     0.5269     1.6135 H       
  51 H51            2.0155     0.7966     3.1103 H       
  52 H52           -2.8774     5.1378    -2.3988 H       
  53 H53           -0.9411     6.6542    -2.4203 H       
  54 H54           -2.5154     8.6813     1.0160 H       
  55 H55           -4.4465     7.1580     1.0158 H       
  56 H56           -1.0579     9.7936     0.8545 H       
  57 H57            1.0785    10.4862    -1.8514 H       
  58 H58            3.0917    11.8983    -1.7510 H       
  59 H59            3.9560    12.6603     0.4237 H       
  60 H60            2.8108    12.0131     2.5037 H       
  61 H61            0.7925    10.6076     2.4139 H       
@<TRIPOS>BOND
   1    1    6 ar
   2    1   20 1
   3    1    2 ar
   4    2    3 ar
   5    2   38 1
   6    3    4 ar
   7    3    8 1
   8    4    5 ar
   9    4    7 1
  10    5    6 ar
  11    5   39 1
  12    6   22 1
  13    7    9 1
  14    8    9 1
  15    8   11 1
  16    8   12 1
  17    9   40 1
  18    9   41 1
  19   10   11 ar
  20   10   13 1
  21   10   18 ar
  22   11   15 ar
  23   12   13 am
  24   12   14 2
  25   13   19 1
  26   15   16 ar
  27   15   42 1
  28   16   17 ar
  29   16   43 1
  30   17   18 ar
  31   17   44 1
  32   18   45 1
  33   19   23 1
  34   19   46 1
  35   19   47 1
  36   20   21 1
  37   20   48 1
  38   20   49 1
  39   21   22 1
  40   21   50 1
  41   21   51 1
  42   23   24 ar
  43   23   28 ar
  44   24   25 ar
  45   24   52 1
  46   25   26 ar
  47   25   53 1
  48   26   27 ar
  49   26   29 1
  50   27   28 ar
  51   27   54 1
  52   28   55 1
  53   29   30 am
  54   29   31 2
  55   30   32 1
  56   30   56 1
  57   32   33 ar
  58   32   37 ar
  59   33   34 ar
  60   33   57 1
  61   34   35 ar
  62   34   58 1
  63   35   36 ar
  64   35   59 1
  65   36   37 ar
  66   36   60 1
  67   37   61 1

#	End of record

