#	Name: ASD01412010
#	Creating user name:	WinNT
#	Creation time:	15. 06. 2019 19:19

#	Modifying user name:	WinNT
#	Modification time:	15. 06. 2019 19:19

#	Program:	/corina/corina34_cracker 3.40 0067  02.08.2006

@<TRIPOS>MOLECULE
ASD01412010
  79   83    0    0    0
SMALL
NO_CHARGES


@<TRIPOS>ATOM
   1 C1            -1.1719     3.2493    -0.6281 C.ar    
   2 C2            -0.9743     1.9108    -1.0238 C.ar    
   3 C3            -2.0426     1.0032    -0.9805 C.ar    
   4 C4            -3.2689     1.4145    -0.5568 C.ar    
   5 C5            -3.4749     2.7444    -0.1617 C.ar    
   6 C6            -2.4231     3.6578    -0.1933 C.ar    
   7 N7             0.0355     3.9013    -0.7733 N.pl3   
   8 C8             0.9674     3.0073    -1.2448 C.2     
   9 C9             0.3837     1.7928    -1.4061 C.2     
  10 C10            1.0607     0.5414    -1.9027 C.3     
  11 C11            0.9731    -0.5459    -0.8299 C.3     
  12 C12            1.6604    -1.8164    -1.3341 C.3     
  13 C13            0.9660    -2.3004    -2.6087 C.3     
  14 C14            1.0536    -1.2131    -3.6815 C.3     
  15 C15            0.3662     0.0574    -3.1773 C.3     
  16 C16           -4.8098     3.1768     0.2945 C.2     
  17 O17           -4.9913     4.3291     0.6377 O.2     
  18 N18           -5.8280     2.2945     0.3309 N.am    
  19 C19           -7.1534     2.7238     0.7839 C.3     
  20 C20           -8.1052     1.5566     0.7298 C.2     
  21 C21           -7.0591     3.2388     2.2215 C.3     
  22 C22           -7.6658     3.8422    -0.1259 C.3     
  23 C23           -8.8162    -0.4857    -0.2523 C.ar    
  24 O24           -8.9754     1.4445     1.5671 O.2     
  25 C25           -9.1918    -1.0742     0.9516 C.ar    
  26 C26          -10.0118    -2.1793     0.9534 C.ar    
  27 C27          -10.4685    -2.7114    -0.2584 C.ar    
  28 C28          -10.0884    -2.1158    -1.4672 C.ar    
  29 C29           -9.2678    -1.0112    -1.4593 C.ar    
  30 C30          -11.3438    -3.8917    -0.2617 C.2     
  31 C31          -12.3916    -3.9580     0.5887 C.2     
  32 N32           -7.9894     0.6374    -0.2490 N.am    
  33 C33            0.2834     5.3139    -0.4745 C.3     
  34 C34            2.3840     3.3201    -1.5314 C.ar    
  35 C35            2.7180     4.4831    -2.2269 C.ar    
  36 C36            4.0416     4.7693    -2.4906 C.ar    
  37 C37            5.0368     3.9064    -2.0673 C.ar    
  38 C38            4.7123     2.7516    -1.3778 C.ar    
  39 C39            3.3930     2.4566    -1.1026 C.ar    
  40 C40          -12.7900    -2.8067     1.3139 C.2     
  41 O41          -12.2160    -1.7486     1.1386 O.2     
  42 O42          -13.8058    -2.8847     2.1986 O.3     
  43 H43           -1.8922    -0.0223    -1.2837 H       
  44 H44           -4.0888     0.7123    -0.5250 H       
  45 H45           -2.5840     4.6813     0.1118 H       
  46 H46            2.1075     0.7557    -2.1183 H       
  47 H47            1.4678    -0.2011     0.0781 H       
  48 H48           -0.0737    -0.7602    -0.6144 H       
  49 H49            2.7072    -1.6022    -1.5497 H       
  50 H50            1.5980    -2.5911    -0.5698 H       
  51 H51            1.4556    -3.2056    -2.9679 H       
  52 H52           -0.0808    -2.5147    -2.3931 H       
  53 H53            2.1003    -0.9988    -3.8971 H       
  54 H54            0.5588    -1.5579    -4.5895 H       
  55 H55           -0.6805    -0.1568    -2.9617 H       
  56 H56            0.4286     0.8320    -3.9416 H       
  57 H57           -5.6832     1.3753     0.0572 H       
  58 H58           -6.3707     4.0830     2.2606 H       
  59 H59           -8.0452     3.5582     2.5585 H       
  60 H60           -6.6941     2.4420     2.8696 H       
  61 H61           -7.7330     3.4754    -1.1501 H       
  62 H62           -8.6519     4.1616     0.2111 H       
  63 H63           -6.9774     4.6864    -0.0868 H       
  64 H64           -8.8390    -0.6630     1.8859 H       
  65 H65          -10.3022    -2.6358     1.8882 H       
  66 H66          -10.4381    -2.5231    -2.4043 H       
  67 H67           -8.9743    -0.5509    -2.3912 H       
  68 H68          -11.1496    -4.7061    -0.9439 H       
  69 H69          -12.9256    -4.8881     0.7160 H       
  70 H70           -7.3309     0.7570    -0.9512 H       
  71 H71            0.5953     5.4161     0.5649 H       
  72 H72            1.0696     5.6910    -1.1285 H       
  73 H73           -0.6302     5.8855    -0.6375 H       
  74 H74            1.9421     5.1573    -2.5582 H       
  75 H75            4.3014     5.6688    -3.0290 H       
  76 H76            6.0714     4.1350    -2.2763 H       
  77 H77            5.4938     2.0819    -1.0504 H       
  78 H78            3.1410     1.5550    -0.5640 H       
  79 H79          -14.0046    -2.0497     2.6439 H       
@<TRIPOS>BOND
   1    1    2 ar
   2    1    7 1
   3    1    6 ar
   4    2    3 ar
   5    2    9 1
   6    3    4 ar
   7    3   43 1
   8    4    5 ar
   9    4   44 1
  10    5    6 ar
  11    5   16 1
  12    6   45 1
  13    7    8 1
  14    7   33 1
  15    8    9 2
  16    8   34 1
  17    9   10 1
  18   10   11 1
  19   10   15 1
  20   10   46 1
  21   11   12 1
  22   11   47 1
  23   11   48 1
  24   12   13 1
  25   12   49 1
  26   12   50 1
  27   13   14 1
  28   13   51 1
  29   13   52 1
  30   14   15 1
  31   14   53 1
  32   14   54 1
  33   15   55 1
  34   15   56 1
  35   16   17 2
  36   16   18 am
  37   18   19 1
  38   18   57 1
  39   19   20 1
  40   19   21 1
  41   19   22 1
  42   20   24 2
  43   20   32 am
  44   21   58 1
  45   21   59 1
  46   21   60 1
  47   22   61 1
  48   22   62 1
  49   22   63 1
  50   23   25 ar
  51   23   29 ar
  52   23   32 1
  53   25   26 ar
  54   25   64 1
  55   26   27 ar
  56   26   65 1
  57   27   28 ar
  58   27   30 1
  59   28   29 ar
  60   28   66 1
  61   29   67 1
  62   30   31 2
  63   30   68 1
  64   31   40 1
  65   31   69 1
  66   32   70 1
  67   33   71 1
  68   33   72 1
  69   33   73 1
  70   34   35 ar
  71   34   39 ar
  72   35   36 ar
  73   35   74 1
  74   36   37 ar
  75   36   75 1
  76   37   38 ar
  77   37   76 1
  78   38   39 ar
  79   38   77 1
  80   39   78 1
  81   40   41 2
  82   40   42 1
  83   42   79 1

#	End of record

