#	Name: ASD01814067
#	Creating user name:	WinNT
#	Creation time:	15. 06. 2019 19:31

#	Modifying user name:	WinNT
#	Modification time:	15. 06. 2019 19:31

#	Program:	/corina/corina34_cracker 3.40 0067  02.08.2006

@<TRIPOS>MOLECULE
ASD01814067
  41   44    0    0    0
SMALL
NO_CHARGES


@<TRIPOS>ATOM
   1 C1             1.1558     2.2514    -0.5136 C.ar    
   2 C2             0.7793     0.9162    -0.4986 C.ar    
   3 C3             1.7218    -0.0797    -0.3471 C.ar    
   4 C4             3.0689     0.2527    -0.2071 C.ar    
   5 C5             3.4456     1.6060    -0.2230 C.ar    
   6 C6             2.4809     2.6017    -0.3770 C.ar    
   7 N7             4.0212    -0.7325    -0.0539 N.pl3   
   8 C8             5.3257    -0.4652     0.0854 C.2     
   9 C9             5.8161     0.8253     0.0858 C.2     
  10 C10            4.8735     1.9441    -0.0741 C.2     
  11 O11            5.2562     3.1010    -0.0806 O.2     
  12 C12            7.2556     1.0775     0.2425 C.2     
  13 O13            7.7223     2.3421     0.2413 O.3     
  14 O14            8.0252     0.1456     0.3731 O.2     
  15 C15            3.5871    -2.1316    -0.0427 C.3     
  16 C16            3.4445    -2.6248    -1.4595 C.ar    
  17 C17            4.5266    -2.5716    -2.3222 C.ar    
  18 C18            4.3973    -3.0240    -3.6234 C.ar    
  19 C19            3.1823    -3.5308    -4.0622 C.ar    
  20 C20            2.0997    -3.5824    -3.1940 C.ar    
  21 C21            2.2353    -3.1348    -1.8944 C.ar    
  22 N22            3.0478    -3.9896    -5.3800 N.pl3   
  23 F23            1.3402    -1.3756    -0.3339 F       
  24 N24            4.0516    -3.9964    -6.3571 N.2     
  25 C25            3.5490    -4.4979    -7.4565 C.2     
  26 C26            2.2104    -4.8266    -7.2161 C.2     
  27 C27            1.9277    -4.5093    -5.9314 C.2     
  28 F28            5.7086    -2.0774    -1.8933 F       
  29 H29            0.4069     3.0196    -0.6376 H       
  30 H30           -0.2628     0.6537    -0.6062 H       
  31 H31            2.7715     3.6418    -0.3894 H       
  32 H32            6.0173    -1.2865     0.2016 H       
  33 H33            8.6765     2.4580     0.3474 H       
  34 H34            4.3271    -2.7375     0.4802 H       
  35 H35            2.6271    -2.2101     0.4676 H       
  36 H36            5.2408    -2.9824    -4.2966 H       
  37 H37            1.1532    -3.9765    -3.5335 H       
  38 H38            1.3931    -3.1752    -1.2196 H       
  39 H39            4.0766    -4.6342    -8.3890 H       
  40 H40            1.5247    -5.2603    -7.9290 H       
  41 H41            0.9768    -4.6419    -5.4369 H       
@<TRIPOS>BOND
   1    1    2 ar
   2    1    6 ar
   3    1   29 1
   4    2    3 ar
   5    2   30 1
   6    3    4 ar
   7    3   23 1
   8    4    5 ar
   9    4    7 1
  10    5    6 ar
  11    5   10 1
  12    6   31 1
  13    7    8 1
  14    7   15 1
  15    8    9 2
  16    8   32 1
  17    9   10 1
  18    9   12 1
  19   10   11 2
  20   12   13 1
  21   12   14 2
  22   13   33 1
  23   15   16 1
  24   15   34 1
  25   15   35 1
  26   16   17 ar
  27   16   21 ar
  28   17   18 ar
  29   17   28 1
  30   18   19 ar
  31   18   36 1
  32   19   20 ar
  33   19   22 1
  34   20   21 ar
  35   20   37 1
  36   21   38 1
  37   22   24 1
  38   22   27 1
  39   24   25 2
  40   25   26 1
  41   25   39 1
  42   26   27 2
  43   26   40 1
  44   27   41 1

#	End of record

