#	Name: ASD04590731
#	Creating user name:	WinNT
#	Creation time:	15. 06. 2019 20:51

#	Modifying user name:	WinNT
#	Modification time:	15. 06. 2019 20:51

#	Program:	/corina/corina34_cracker 3.40 0067  02.08.2006

@<TRIPOS>MOLECULE
ASD04590731
  75   80    0    0    0
SMALL
NO_CHARGES


@<TRIPOS>ATOM
   1 O1            -0.0149     1.3502     0.0076 O.3     
   2 N2             0.1207    -3.8647     4.5016 N.ar    
   3 C3             0.0994    -2.7555     5.2296 C.ar    
   4 N4             0.0700    -1.5511     4.6827 N.ar    
   5 C5             0.0604    -1.4081     3.3606 C.ar    
   6 C6             0.0824    -2.5675     2.5592 C.ar    
   7 C7             0.1132    -3.8123     3.1799 C.ar    
   8 N8             0.0325    -0.3121     2.5353 N.pl3   
   9 C9             0.0352    -0.7071     1.2075 C.ar    
  10 C10            0.0660    -2.1095     1.1640 C.ar    
  11 C11            0.0151    -0.0068     0.0006 C.ar    
  12 N12            0.0246    -0.6583    -1.1487 N.ar    
  13 C13            0.0531    -1.9790    -1.2134 C.ar    
  14 C14            0.0748    -2.7436    -0.0805 C.ar    
  15 C15            0.0033     1.0791     2.9937 C.3     
  16 N16            0.1079    -2.8622     6.6106 N.pl3   
  17 C17            0.0258    -4.1177     7.2137 C.ar    
  18 N18           -0.1608    -5.1978     6.4733 N.ar    
  19 N19           -0.2425    -6.3719     6.9852 N.ar    
  20 C20           -0.1456    -6.5808     8.2881 C.ar    
  21 C21            0.0521    -5.5022     9.1517 C.ar    
  22 C22            0.1459    -4.2372     8.5990 C.ar    
  23 N23           -0.2411    -7.8742     8.7969 N.3     
  24 C24           -0.4477    -8.8498     7.7189 C.3     
  25 C25           -0.6928   -10.2346     8.3224 C.3     
  26 C26            0.5145   -10.6355     9.1746 C.3     
  27 C27            0.7372    -9.5782    10.2596 C.3     
  28 C28            0.9409    -8.2125     9.5999 C.3     
  29 C29           -1.2475     1.3098     3.8440 C.3     
  30 C30           -1.2779     2.7626     4.3227 C.3     
  31 C31           -0.0309     3.0495     5.1615 C.3     
  32 C32            1.2199     2.8188     4.3111 C.3     
  33 C33            1.2504     1.3659     3.8325 C.3     
  34 C34           -0.0613     4.5023     5.6402 C.3     
  35 C35           -0.0043     2.1141     6.3720 C.3     
  36 N36            0.2604   -11.9385     9.8037 N.3     
  37 C37            1.4444   -12.4104    10.5340 C.3     
  38 C38           -0.9126   -11.8772    10.6860 C.3     
  39 H39            0.8596     1.7629     0.0062 H       
  40 H40            0.1306    -4.7190     2.5934 H       
  41 H41            0.0598    -2.4623    -2.1792 H       
  42 H42            0.0980    -3.8213    -0.1466 H       
  43 H43           -0.0156     1.7454     2.1313 H       
  44 H44            0.1710    -2.0642     7.1584 H       
  45 H45            0.1335    -5.6509    10.2184 H       
  46 H46            0.2987    -3.3679     9.2214 H       
  47 H47           -1.3115    -8.5552     7.1231 H       
  48 H48            0.4375    -8.8819     7.0837 H       
  49 H49           -1.5858   -10.2065     8.9469 H       
  50 H50           -0.8305   -10.9613     7.5218 H       
  51 H51            1.4004   -10.7016     8.5430 H       
  52 H52           -0.1333    -9.5399    10.9145 H       
  53 H53            1.6211    -9.8360    10.8429 H       
  54 H54            1.8196    -8.2476     8.9558 H       
  55 H55            1.0855    -7.4550    10.3702 H       
  56 H56           -2.1359     1.1054     3.2465 H       
  57 H57           -1.2285     0.6434     4.7064 H       
  58 H58           -1.2969     3.4290     3.4603 H       
  59 H59           -2.1690     2.9270     4.9285 H       
  60 H60            1.2010     3.4851     3.4488 H       
  61 H61            2.1083     3.0231     4.9087 H       
  62 H62            1.2693     0.6995     4.6949 H       
  63 H63            2.1415     1.2015     3.2266 H       
  64 H64           -0.9524     4.6667     6.2460 H       
  65 H65            0.8271     4.7067     6.2378 H       
  66 H66           -0.0803     5.1687     4.7778 H       
  67 H67            0.0174     1.0791     6.0310 H       
  68 H68            0.8841     2.3185     6.9696 H       
  69 H69           -0.8954     2.2785     6.9779 H       
  70 H70            1.7022   -11.6912    11.3115 H       
  71 H71            1.2288   -13.3767    10.9899 H       
  72 H72            2.2806   -12.5133     9.8425 H       
  73 H73           -1.7898   -11.5926    10.1050 H       
  74 H74           -1.0782   -12.8549    11.1387 H       
  75 H75           -0.7401   -11.1388    11.4690 H       
@<TRIPOS>BOND
   1    1   11 1
   2    1   39 1
   3    2    3 ar
   4    2    7 ar
   5    3    4 ar
   6    3   16 1
   7    4    5 ar
   8    5    6 ar
   9    5    8 1
  10    6    7 ar
  11    6   10 1
  12    7   40 1
  13    8    9 1
  14    8   15 1
  15    9   10 ar
  16    9   11 ar
  17   10   14 ar
  18   11   12 ar
  19   12   13 ar
  20   13   14 ar
  21   13   41 1
  22   14   42 1
  23   15   29 1
  24   15   33 1
  25   15   43 1
  26   16   17 1
  27   16   44 1
  28   17   18 ar
  29   17   22 ar
  30   18   19 ar
  31   19   20 ar
  32   20   21 ar
  33   20   23 1
  34   21   22 ar
  35   21   45 1
  36   22   46 1
  37   23   24 1
  38   23   28 1
  39   24   25 1
  40   24   47 1
  41   24   48 1
  42   25   26 1
  43   25   49 1
  44   25   50 1
  45   26   27 1
  46   26   36 1
  47   26   51 1
  48   27   28 1
  49   27   52 1
  50   27   53 1
  51   28   54 1
  52   28   55 1
  53   29   30 1
  54   29   56 1
  55   29   57 1
  56   30   31 1
  57   30   58 1
  58   30   59 1
  59   31   32 1
  60   31   34 1
  61   31   35 1
  62   32   33 1
  63   32   60 1
  64   32   61 1
  65   33   62 1
  66   33   63 1
  67   34   64 1
  68   34   65 1
  69   34   66 1
  70   35   67 1
  71   35   68 1
  72   35   69 1
  73   36   37 1
  74   36   38 1
  75   37   70 1
  76   37   71 1
  77   37   72 1
  78   38   73 1
  79   38   74 1
  80   38   75 1

#	End of record

