#	Name: ASD01911456
#	Creating user name:	WinNT
#	Creation time:	15. 06. 2019 19:57

#	Modifying user name:	WinNT
#	Modification time:	15. 06. 2019 19:57

#	Program:	/corina/corina34_cracker 3.40 0067  02.08.2006

@<TRIPOS>MOLECULE
ASD01911456
  64   67    0    0    0
SMALL
NO_CHARGES


@<TRIPOS>ATOM
   1 C1             1.7353     0.7839     1.8358 C.3     
   2 C2             2.3793    -0.5161     2.3664 C.3     
   3 N3             3.7816    -0.1767     2.6358 N.am    
   4 C4             2.9592     1.5261     1.2508 C.3     
   5 C5             4.6366    -0.9387     3.4309 C.ar    
   6 C6             4.2004    -2.1565     3.9405 C.ar    
   7 C7             5.0589    -2.9030     4.7278 C.ar    
   8 C8             6.3302    -2.4034     4.9794 C.ar    
   9 C9             6.6967    -1.1856     4.4404 C.ar    
  10 N10            5.8577    -0.4985     3.6890 N.ar    
  11 I11            7.6772    -3.4851     6.1645 I       
  12 C12            0.7066     0.4797     0.7448 C.3     
  13 C13            4.1357     0.9628     2.0170 C.2     
  14 O14            5.2379     1.4663     2.0663 O.2     
  15 C15            1.1017     1.5856     2.9746 C.3     
  16 O16            3.0922     1.2489    -0.1447 O.3     
  17 Si17           3.2424     2.5807    -1.0742 Si      
  18 C18            3.0793     2.1059    -2.8735 C.ar    
  19 C19            1.9033     3.8048    -0.6294 C.ar    
  20 C20            4.9122     3.3547    -0.7851 C.3     
  21 C21            6.0006     2.2898    -0.9343 C.3     
  22 C22            5.1431     4.4669    -1.8101 C.3     
  23 C23            4.9642     3.9429     0.6263 C.3     
  24 C24            2.2209     2.8082    -3.6986 C.ar    
  25 C25            3.8212     1.0558    -3.3812 C.ar    
  26 C26            3.7005     0.7044    -4.7127 C.ar    
  27 C27            2.8375     1.4028    -5.5364 C.ar    
  28 C28            2.1001     2.4568    -5.0301 C.ar    
  29 C29            0.7159     3.8178    -1.3371 C.ar    
  30 C30           -0.2750     4.7236    -1.0080 C.ar    
  31 C31           -0.0788     5.6162     0.0291 C.ar    
  32 C32            1.1083     5.6026     0.7374 C.ar    
  33 C33            2.0975     4.6939     0.4111 C.ar    
  34 H34            1.8852    -0.8344     3.2844 H       
  35 H35            2.3193    -1.3015     1.6131 H       
  36 H36            2.8718     2.5992     1.4209 H       
  37 H37            3.2046    -2.5148     3.7250 H       
  38 H38            4.7475    -3.8525     5.1377 H       
  39 H39            7.6840    -0.7927     4.6335 H       
  40 H40           -0.0911    -0.1367     1.1594 H       
  41 H41            0.2871     1.4134     0.3705 H       
  42 H42            1.1911    -0.0545    -0.0725 H       
  43 H43            1.8626     1.8252     3.7174 H       
  44 H44            0.6782     2.5081     2.5777 H       
  45 H45            0.3130     0.9944     3.4400 H       
  46 H46            5.9589     1.8656    -1.9375 H       
  47 H47            6.9781     2.7441    -0.7722 H       
  48 H48            5.8402     1.5009    -0.1993 H       
  49 H49            4.3677     5.2256    -1.7038 H       
  50 H50            6.1201     4.9198    -1.6409 H       
  51 H51            5.1061     4.0478    -2.8156 H       
  52 H52            4.4344     3.2840     1.3143 H       
  53 H53            6.0030     4.0384     0.9421 H       
  54 H54            4.4921     4.9254     0.6281 H       
  55 H55            1.6443     3.6312    -3.3029 H       
  56 H56            4.4954     0.5101    -2.7377 H       
  57 H57            4.2807    -0.1156    -5.1095 H       
  58 H58            2.7435     1.1285    -6.5767 H       
  59 H59            1.4259     3.0024    -5.6736 H       
  60 H60            0.5626     3.1204    -2.1474 H       
  61 H61           -1.2024     4.7342    -1.5614 H       
  62 H62           -0.8527     6.3244     0.2858 H       
  63 H63            1.2617     6.3002     1.5475 H       
  64 H64            3.0249     4.6833     0.9645 H       
@<TRIPOS>BOND
   1    1    2 1
   2    1    4 1
   3    1   12 1
   4    1   15 1
   5    2    3 1
   6    2   34 1
   7    2   35 1
   8    3    5 1
   9    3   13 am
  10    4   13 1
  11    4   16 1
  12    4   36 1
  13    5    6 ar
  14    5   10 ar
  15    6    7 ar
  16    6   37 1
  17    7    8 ar
  18    7   38 1
  19    8    9 ar
  20    8   11 1
  21    9   10 ar
  22    9   39 1
  23   12   40 1
  24   12   41 1
  25   12   42 1
  26   13   14 2
  27   15   43 1
  28   15   44 1
  29   15   45 1
  30   16   17 1
  31   17   18 1
  32   17   19 1
  33   17   20 1
  34   18   24 ar
  35   18   25 ar
  36   19   29 ar
  37   19   33 ar
  38   20   21 1
  39   20   22 1
  40   20   23 1
  41   21   46 1
  42   21   47 1
  43   21   48 1
  44   22   49 1
  45   22   50 1
  46   22   51 1
  47   23   52 1
  48   23   53 1
  49   23   54 1
  50   24   28 ar
  51   24   55 1
  52   25   26 ar
  53   25   56 1
  54   26   27 ar
  55   26   57 1
  56   27   28 ar
  57   27   58 1
  58   28   59 1
  59   29   30 ar
  60   29   60 1
  61   30   31 ar
  62   30   61 1
  63   31   32 ar
  64   31   62 1
  65   32   33 ar
  66   32   63 1
  67   33   64 1

#	End of record

