#	Name: ASD01190053
#	Creating user name:	WinNT
#	Creation time:	15. 06. 2019 19:07

#	Modifying user name:	WinNT
#	Modification time:	15. 06. 2019 19:07

#	Program:	/corina/corina34_cracker 3.40 0067  02.08.2006

@<TRIPOS>MOLECULE
ASD01190053
  60   63    0    0    0
SMALL
NO_CHARGES


@<TRIPOS>ATOM
   1 N1            -0.1855     0.1360     0.9303 N.pl3   
   2 C2            -0.1961    -0.8976     0.0213 C.2     
   3 C3             1.1086    -1.3047    -0.1601 C.2     
   4 C4             1.9078    -0.4981     0.6561 C.2     
   5 C5             1.0955     0.3684     1.3073 C.2     
   6 C6            -1.3799    -1.4634    -0.6344 C.2     
   7 O7            -2.4928    -1.1736    -0.2363 O.2     
   8 N8            -1.2352    -2.3042    -1.6777 N.am    
   9 C9            -2.4176    -2.8666    -2.3347 C.3     
  10 C10            0.1046    -2.6556    -2.1548 C.3     
  11 C11            3.4068    -0.5791     0.7883 C.3     
  12 C12            4.0455    -0.5168    -0.6006 C.3     
  13 O13            3.8753     0.5162     1.5775 O.3     
  14 N14            4.6762    -5.5488     3.0905 N.pl3   
  15 N15            4.0258    -6.3830     2.1752 N.2     
  16 C16            3.4495    -5.6692     1.2500 C.2     
  17 C17            3.7149    -4.2636     1.5399 C.ar    
  18 C18            3.3655    -3.0595     0.9185 C.ar    
  19 C19            3.7828    -1.8766     1.4563 C.ar    
  20 C20            4.5514    -1.8572     2.6138 C.ar    
  21 C21            4.9054    -3.0197     3.2382 C.ar    
  22 C22            4.4940    -4.2416     2.7130 C.ar    
  23 C23            5.3932    -5.9781     4.2148 C.ar    
  24 C24            4.9712    -7.0952     4.9237 C.ar    
  25 C25            5.6794    -7.5167     6.0319 C.ar    
  26 C26            6.8096    -6.8261     6.4363 C.ar    
  27 C27            7.2321    -5.7119     5.7308 C.ar    
  28 C28            6.5301    -5.2905     4.6187 C.ar    
  29 F29            7.5008    -7.2398     7.5209 F       
  30 F30            3.6964     0.6877    -1.2208 F       
  31 F31            5.4370    -0.5920    -0.4778 F       
  32 F32            3.5869    -1.5891    -1.3733 F       
  33 C33           -1.3622     0.8674     1.4063 C.3     
  34 C34           -2.0356     0.0786     2.4997 C.2     
  35 N35           -3.1467     0.5599     3.0915 N.am    
  36 O36           -1.5776    -0.9893     2.8472 O.2     
  37 C37           -3.8012    -0.2068     4.1544 C.3     
  38 H38            1.4492    -2.0972    -0.8100 H       
  39 H39            1.4162     1.1215     2.0118 H       
  40 H40           -2.7316    -2.2075    -3.1441 H       
  41 H41           -2.1755    -3.8492    -2.7396 H       
  42 H42           -3.2257    -2.9616    -1.6094 H       
  43 H43            0.5061    -3.4658    -1.5461 H       
  44 H44            0.0473    -2.9766    -3.1949 H       
  45 H45            0.7573    -1.7860    -2.0784 H       
  46 H46            3.5107     0.5402     2.4729 H       
  47 H47            2.8774    -6.0498     0.4167 H       
  48 H48            2.7691    -3.0662     0.0181 H       
  49 H49            4.8731    -0.9117     3.0247 H       
  50 H50            5.5034    -2.9908     4.1371 H       
  51 H51            4.0897    -7.6338     4.6088 H       
  52 H52            5.3514    -8.3852     6.5837 H       
  53 H53            8.1136    -5.1745     6.0481 H       
  54 H54            6.8626    -4.4243     4.0659 H       
  55 H55           -1.0541     1.8378     1.7954 H       
  56 H56           -2.0590     1.0116     0.5805 H       
  57 H57           -3.5130     1.4141     2.8136 H       
  58 H58           -4.6768     0.3373     4.5086 H       
  59 H59           -4.1094    -1.1773     3.7653 H       
  60 H60           -3.1045    -0.3511     4.9802 H       
@<TRIPOS>BOND
   1    1    2 1
   2    1    5 1
   3    1   33 1
   4    2    3 2
   5    2    6 1
   6    3    4 1
   7    3   38 1
   8    4    5 2
   9    4   11 1
  10    5   39 1
  11    6    7 2
  12    6    8 am
  13    8    9 1
  14    8   10 1
  15    9   40 1
  16    9   41 1
  17    9   42 1
  18   10   43 1
  19   10   44 1
  20   10   45 1
  21   11   12 1
  22   11   13 1
  23   11   19 1
  24   12   30 1
  25   12   31 1
  26   12   32 1
  27   13   46 1
  28   14   15 1
  29   14   22 1
  30   14   23 1
  31   15   16 2
  32   16   17 1
  33   16   47 1
  34   17   18 ar
  35   17   22 ar
  36   18   19 ar
  37   18   48 1
  38   19   20 ar
  39   20   21 ar
  40   20   49 1
  41   21   22 ar
  42   21   50 1
  43   23   24 ar
  44   23   28 ar
  45   24   25 ar
  46   24   51 1
  47   25   26 ar
  48   25   52 1
  49   26   27 ar
  50   26   29 1
  51   27   28 ar
  52   27   53 1
  53   28   54 1
  54   33   34 1
  55   33   55 1
  56   33   56 1
  57   34   35 am
  58   34   36 2
  59   35   37 1
  60   35   57 1
  61   37   58 1
  62   37   59 1
  63   37   60 1

#	End of record

