#	Name: ASD04882403
#	Creating user name:	WinNT
#	Creation time:	15. 06. 2019 20:54

#	Modifying user name:	WinNT
#	Modification time:	15. 06. 2019 20:54

#	Program:	/corina/corina34_cracker 3.40 0067  02.08.2006

@<TRIPOS>MOLECULE
ASD04882403
  80   84    0    0    0
SMALL
NO_CHARGES


@<TRIPOS>ATOM
   1 C1            -0.0215     1.4013    -0.0094 C.ar    
   2 C2            -0.0117     0.0037    -0.0051 C.ar    
   3 C3            -1.2095    -0.7018    -0.0170 C.ar    
   4 C4            -2.4097    -0.0266    -0.0325 C.ar    
   5 C5            -2.4268     1.3710    -0.0368 C.ar    
   6 C6            -1.2240     2.0827    -0.0191 C.ar    
   7 N7             1.1996    -0.6831     0.0105 N.3     
   8 C8             1.3061    -1.5360     1.2024 C.3     
   9 C9             1.3728    -1.4734    -1.2163 C.3     
  10 C10            2.7466    -2.1477    -1.1959 C.3     
  11 N11            2.8531    -3.0006    -0.0039 N.3     
  12 C12            2.6799    -2.2103     1.2229 C.3     
  13 C13           -3.7127     2.0939    -0.0543 C.2     
  14 O14           -3.7266     3.3098    -0.0580 O.2     
  15 C15            4.0681    -3.6895     0.0117 C.ar    
  16 C16            5.2663    -2.9872     0.0231 C.ar    
  17 C17            4.0807    -5.0787     0.0217 C.ar    
  18 C18            5.2836    -5.7566     0.0372 C.ar    
  19 C19            6.4750    -5.0541     0.0432 C.ar    
  20 C20            6.4660    -3.6715     0.0386 C.ar    
  21 N21           -4.8720     1.4067    -0.0661 N.am    
  22 C22            2.7830    -5.8449     0.0162 C.3     
  23 C23           -6.1489     2.1247    -0.0835 C.3     
  24 C24           -7.2268     1.2332    -0.7035 C.3     
  25 C25           -6.8894     0.9717    -2.1727 C.3     
  26 N26            1.1863     2.1109     0.0021 N.am    
  27 C27            1.2294     3.3599     0.5068 C.2     
  28 O28            0.2059     3.8988     0.8856 O.2     
  29 C29            2.5092     4.0695     0.5995 C.2     
  30 C30            2.6935     5.3315     1.0876 C.2     
  31 C31            4.0664     5.6062     0.9879 C.2     
  32 C32            4.6525     4.5138     0.4501 C.2     
  33 O33            3.7118     3.5879     0.2228 O.3     
  34 C34            6.1233     4.3603     0.1599 C.3     
  35 C35           -6.5490     2.4884     1.3477 C.3     
  36 N36           -7.9215     0.1181    -2.7664 N.am    
  37 C37           -9.0327     0.5778    -3.3671 C.2     
  38 C38           -7.8720    -1.3485    -2.7871 C.3     
  39 C39           -9.3151    -1.8053    -3.0960 C.3     
  40 C40           -9.8773    -0.5790    -3.8540 C.3     
  41 O41           -9.3172     1.7494    -3.4988 O.2     
  42 H42           -1.1988    -1.7817    -0.0144 H       
  43 H43           -3.3386    -0.5776    -0.0416 H       
  44 H44           -1.2341     3.1626    -0.0220 H       
  45 H45            1.1870    -0.9261     2.0979 H       
  46 H46            0.5273    -2.2982     1.1749 H       
  47 H47            0.5948    -2.2348    -1.2713 H       
  48 H48            1.3024    -0.8177    -2.0842 H       
  49 H49            2.8657    -2.7576    -2.0914 H       
  50 H50            3.5254    -1.3855    -1.1684 H       
  51 H51            3.4579    -1.4489     1.2778 H       
  52 H52            2.7503    -2.8660     2.0908 H       
  53 H53            5.2599    -1.9072     0.0196 H       
  54 H54            5.2941    -6.8365     0.0449 H       
  55 H55            7.4144    -5.5867     0.0560 H       
  56 H56            7.3981    -3.1260     0.0433 H       
  57 H57           -4.8610     0.4368    -0.0632 H       
  58 H58            2.4789    -6.0370    -1.0128 H       
  59 H59            2.9183    -6.7924     0.5379 H       
  60 H60            2.0134    -5.2597     0.5194 H       
  61 H61           -6.0460     3.0348    -0.6745 H       
  62 H62           -7.2682     0.2858    -0.1660 H       
  63 H63           -8.1938     1.7318    -0.6359 H       
  64 H64           -6.8481     1.9191    -2.7102 H       
  65 H65           -5.9225     0.4732    -2.2403 H       
  66 H66            1.9917     1.7034    -0.3532 H       
  67 H67            1.9307     5.9907     1.4748 H       
  68 H68            4.5612     6.5191     1.2848 H       
  69 H69            6.6234     3.9378     1.0314 H       
  70 H70            6.2578     3.6960    -0.6937 H       
  71 H71            6.5525     5.3360    -0.0678 H       
  72 H72           -7.4991     3.0225     1.3348 H       
  73 H73           -6.6519     1.5783     1.9387 H       
  74 H74           -5.7811     3.1235     1.7894 H       
  75 H75           -7.1926    -1.6920    -3.5672 H       
  76 H76           -7.5557    -1.7290    -1.8159 H       
  77 H77           -9.3164    -2.6898    -3.7329 H       
  78 H78           -9.8717    -1.9875    -2.1767 H       
  79 H79          -10.9251    -0.4204    -3.5990 H       
  80 H80           -9.7611    -0.7095    -4.9299 H       
@<TRIPOS>BOND
   1    1    2 ar
   2    1   26 1
   3    1    6 ar
   4    2    3 ar
   5    2    7 1
   6    3    4 ar
   7    3   42 1
   8    4    5 ar
   9    4   43 1
  10    5    6 ar
  11    5   13 1
  12    6   44 1
  13    7    8 1
  14    7    9 1
  15    8   12 1
  16    8   45 1
  17    8   46 1
  18    9   10 1
  19    9   47 1
  20    9   48 1
  21   10   11 1
  22   10   49 1
  23   10   50 1
  24   11   12 1
  25   11   15 1
  26   12   51 1
  27   12   52 1
  28   13   14 2
  29   13   21 am
  30   15   16 ar
  31   15   17 ar
  32   16   20 ar
  33   16   53 1
  34   17   18 ar
  35   17   22 1
  36   18   19 ar
  37   18   54 1
  38   19   20 ar
  39   19   55 1
  40   20   56 1
  41   21   23 1
  42   21   57 1
  43   22   58 1
  44   22   59 1
  45   22   60 1
  46   23   24 1
  47   23   35 1
  48   23   61 1
  49   24   25 1
  50   24   62 1
  51   24   63 1
  52   25   36 1
  53   25   64 1
  54   25   65 1
  55   26   27 am
  56   26   66 1
  57   27   28 2
  58   27   29 1
  59   29   30 2
  60   29   33 1
  61   30   31 1
  62   30   67 1
  63   31   32 2
  64   31   68 1
  65   32   33 1
  66   32   34 1
  67   34   69 1
  68   34   70 1
  69   34   71 1
  70   35   72 1
  71   35   73 1
  72   35   74 1
  73   36   37 am
  74   36   38 1
  75   37   41 2
  76   37   40 1
  77   38   39 1
  78   38   75 1
  79   38   76 1
  80   39   40 1
  81   39   77 1
  82   39   78 1
  83   40   79 1
  84   40   80 1

#	End of record

