#	Name: ASD03570036
#	Creating user name:	WinNT
#	Creation time:	15. 06. 2019 20:43

#	Modifying user name:	WinNT
#	Modification time:	15. 06. 2019 20:43

#	Program:	/corina/corina34_cracker 3.40 0067  02.08.2006

@<TRIPOS>MOLECULE
ASD03570036
  40   41    0    0    0
SMALL
NO_CHARGES


@<TRIPOS>ATOM
   1 Cl1            1.5216    -0.8433    -0.0170 Cl      
   2 Cl2           -1.2295     3.8043     0.0411 Cl      
   3 C3            -0.0168     1.3880     0.0097 C.ar    
   4 C4             0.0021    -0.0041     0.0020 C.ar    
   5 C5            -1.1739    -0.7219     0.0089 C.ar    
   6 C6            -2.3957    -0.0558     0.0242 C.ar    
   7 C7            -2.4199     1.3525     0.0324 C.ar    
   8 C8            -1.2134     2.0684     0.0305 C.ar    
   9 N9            -3.7016    -0.4894     0.0339 N.pl3   
  10 C10           -4.5358     0.6129     0.0480 C.2     
  11 C11           -3.7797     1.7432     0.0474 C.2     
  12 C12           -4.2973     3.1585     0.0608 C.3     
  13 C13           -4.4591     3.6287     1.5077 C.3     
  14 F14            1.1463     2.0752     0.0023 F       
  15 C15           -6.0033     0.5701     0.0611 C.2     
  16 O16           -6.6416     1.6049     0.0726 O.2     
  17 O17           -6.6433    -0.6169     0.0604 O.3     
  18 C18           -8.6382    -2.0135     0.0708 C.3     
  19 C19           -8.0948    -0.5832     0.0737 C.3     
  20 C20           -4.9768     5.0439     1.5211 C.2     
  21 O21           -5.1940     5.6176     0.4801 O.2     
  22 O22           -5.1965     5.6672     2.6894 O.3     
  23 C23           -5.8831     7.5700     4.0452 C.3     
  24 C24           -5.6953     7.0293     2.6263 C.3     
  25 H25           -1.1476    -1.8016     0.0022 H       
  26 H26           -3.9893    -1.4158     0.0310 H       
  27 H27           -3.5911     3.8085    -0.4557 H       
  28 H28           -5.2627     3.1970    -0.4439 H       
  29 H29           -5.1654     2.9786     2.0242 H       
  30 H30           -3.4938     3.5901     2.0124 H       
  31 H31           -8.2789    -2.5405     0.9546 H       
  32 H32           -9.7279    -1.9882     0.0808 H       
  33 H33           -8.2950    -2.5307    -0.8252 H       
  34 H34           -8.4380    -0.0660     0.9697 H       
  35 H35           -8.4542    -0.0562    -0.8102 H       
  36 H36           -6.5985     6.9455     4.5803 H       
  37 H37           -4.9270     7.5570     4.5685 H       
  38 H38           -6.2575     8.5925     3.9978 H       
  39 H39           -4.9798     7.6538     2.0913 H       
  40 H40           -6.6514     7.0423     2.1031 H       
@<TRIPOS>BOND
   1    1    4 1
   2    2    8 1
   3    3    4 ar
   4    3   14 1
   5    3    8 ar
   6    4    5 ar
   7    5    6 ar
   8    5   25 1
   9    6    7 ar
  10    6    9 1
  11    7    8 ar
  12    7   11 1
  13    9   10 1
  14    9   26 1
  15   10   11 2
  16   10   15 1
  17   11   12 1
  18   12   13 1
  19   12   27 1
  20   12   28 1
  21   13   20 1
  22   13   29 1
  23   13   30 1
  24   15   16 2
  25   15   17 1
  26   17   19 1
  27   18   19 1
  28   18   31 1
  29   18   32 1
  30   18   33 1
  31   19   34 1
  32   19   35 1
  33   20   21 2
  34   20   22 1
  35   22   24 1
  36   23   24 1
  37   23   36 1
  38   23   37 1
  39   23   38 1
  40   24   39 1
  41   24   40 1

#	End of record

