#	Name: ASD01140038
#	Creating user name:	WinNT
#	Creation time:	15. 06. 2019 18:59

#	Modifying user name:	WinNT
#	Modification time:	15. 06. 2019 18:59

#	Program:	/corina/corina34_cracker 3.40 0067  02.08.2006

@<TRIPOS>MOLECULE
ASD01140038
  46   49    0    0    0
SMALL
NO_CHARGES


@<TRIPOS>ATOM
   1 C1            -0.0178     1.4067    -0.0196 C.2     
   2 C2             0.0002    -0.0027    -0.0693 C.2     
   3 C3             1.1957    -0.6524    -0.1451 C.2     
   4 C4             2.3889     0.0877    -0.1726 C.2     
   5 C5             2.3546     1.4362    -0.1242 C.2     
   6 N6             1.1643     2.0996    -0.0482 N.pl3   
   7 N7            -1.0119     2.2828     0.0605 N.2     
   8 C8            -0.5153     3.5170     0.0784 C.2     
   9 C9             0.8466     3.4367     0.0124 C.2     
  10 C10            1.7965     4.5686     0.0099 C.ar    
  11 C11            1.4128     5.8053     0.5343 C.ar    
  12 C12            2.2987     6.8637     0.5328 C.ar    
  13 C13            3.5710     6.7073     0.0126 C.ar    
  14 C14            3.9664     5.4748    -0.5148 C.ar    
  15 C15            3.0792     4.4027    -0.5106 C.ar    
  16 C16            5.3293     5.3085    -1.0716 C.ar    
  17 C17            5.5047     5.0482    -2.4275 C.ar    
  18 C18            6.7764     4.8934    -2.9423 C.ar    
  19 C19            7.8844     4.9951    -2.1178 C.ar    
  20 C20            7.7316     5.2525    -0.7712 C.ar    
  21 C21            6.4545     5.4183    -0.2338 C.ar    
  22 F22            4.4326     7.7478     0.0140 F       
  23 C23            6.2896     5.6857     1.1633 C.1     
  24 N24            6.1587     5.8979     2.2716 N.1     
  25 C25            1.2371    -2.1579    -0.1988 C.3     
  26 C26            1.9156    -2.6035    -1.4957 C.3     
  27 C27            2.0271    -2.6893     0.9989 C.3     
  28 O28           -0.0953    -2.6728    -0.1569 O.3     
  29 F29           -1.1558    -0.7013    -0.0417 F       
  30 H30            3.3379    -0.4243    -0.2323 H       
  31 H31            3.2781     1.9957    -0.1459 H       
  32 H32           -1.0917     4.4283     0.1388 H       
  33 H33            0.4208     5.9335     0.9414 H       
  34 H34            1.9973     7.8179     0.9389 H       
  35 H35            3.3801     3.4484    -0.9170 H       
  36 H36            4.6458     4.9671    -3.0772 H       
  37 H37            6.9079     4.6912    -3.9950 H       
  38 H38            8.8744     4.8717    -2.5316 H       
  39 H39            8.6002     5.3302    -0.1340 H       
  40 H40            2.9318    -2.2107    -1.5276 H       
  41 H41            1.9455    -3.6924    -1.5345 H       
  42 H42            1.3527    -2.2249    -2.3489 H       
  43 H43            1.5438    -2.3718     1.9228 H       
  44 H44            2.0571    -3.7782     0.9601 H       
  45 H45            3.0434    -2.2965     0.9669 H       
  46 H46           -0.6546    -2.3766    -0.8880 H       
@<TRIPOS>BOND
   1    1    2 1
   2    1    6 1
   3    1    7 2
   4    2    3 2
   5    2   29 1
   6    3    4 1
   7    3   25 1
   8    4    5 2
   9    4   30 1
  10    5    6 1
  11    5   31 1
  12    6    9 1
  13    7    8 1
  14    8    9 2
  15    8   32 1
  16    9   10 1
  17   10   11 ar
  18   10   15 ar
  19   11   12 ar
  20   11   33 1
  21   12   13 ar
  22   12   34 1
  23   13   14 ar
  24   13   22 1
  25   14   15 ar
  26   14   16 1
  27   15   35 1
  28   16   17 ar
  29   16   21 ar
  30   17   18 ar
  31   17   36 1
  32   18   19 ar
  33   18   37 1
  34   19   20 ar
  35   19   38 1
  36   20   21 ar
  37   20   39 1
  38   21   23 1
  39   23   24 3
  40   25   26 1
  41   25   27 1
  42   25   28 1
  43   26   40 1
  44   26   41 1
  45   26   42 1
  46   27   43 1
  47   27   44 1
  48   27   45 1
  49   28   46 1

#	End of record

