#	Name: ASD01140261
#	Creating user name:	WinNT
#	Creation time:	15. 06. 2019 19:00

#	Modifying user name:	WinNT
#	Modification time:	15. 06. 2019 19:00

#	Program:	/corina/corina34_cracker 3.40 0067  02.08.2006

@<TRIPOS>MOLECULE
ASD01140261
  39   42    0    0    0
SMALL
NO_CHARGES


@<TRIPOS>ATOM
   1 C1            -0.0167     1.3809     0.0096 C.ar    
   2 C2             0.0021    -0.0041     0.0020 C.ar    
   3 C3             1.2010    -0.6812    -0.0010 C.ar    
   4 C4             2.4161     0.0200     0.0034 C.ar    
   5 C5             2.3877     1.4149    -0.0127 C.ar    
   6 C6             1.1693     2.0856     0.0021 C.ar    
   7 Br7           -1.6246    -0.9684    -0.0036 Br      
   8 C8             3.6589    -0.7596     0.0562 C.2     
   9 C9             3.6548    -1.9264     0.9530 C.2     
  10 C10            4.7020    -2.7785     1.1473 C.2     
  11 C11            4.4245    -3.7872     2.0428 C.2     
  12 C12            3.1933    -3.7604     2.5624 C.2     
  13 S13            2.3017    -2.4404     1.9512 S.3     
  14 N14            4.7553    -0.5435    -0.5912 N.2     
  15 C15            4.8858     0.5696    -1.5385 C.3     
  16 C16            4.6755     1.8505    -0.7734 C.2     
  17 N17            3.5585     2.1772    -0.0770 N.pl3   
  18 C18            5.5491     2.8858    -0.6404 C.2     
  19 N19            4.9618     3.8102     0.1659 N.2     
  20 C20            3.7804     3.3837     0.5118 C.2     
  21 C21            6.8825     2.9860    -1.2549 C.2     
  22 O22            7.2961     2.0862    -1.9597 O.2     
  23 O23            7.6453     4.0756    -1.0362 O.3     
  24 C24            9.6633     5.4103    -1.3126 C.3     
  25 C25            8.9492     4.1064    -1.6742 C.3     
  26 H26           -0.9590     1.9086     0.0170 H       
  27 H27            1.2060    -1.7612    -0.0065 H       
  28 H28            1.1516     3.1654     0.0073 H       
  29 H29            5.6538    -2.6730     0.6480 H       
  30 H30            5.1484    -4.5444     2.3056 H       
  31 H31            2.8149    -4.4764     3.2770 H       
  32 H32            5.8818     0.5631    -1.9811 H       
  33 H33            4.1324     0.4789    -2.3210 H       
  34 H34            3.0901     3.9028     1.1602 H       
  35 H35            9.0700     6.2572    -1.6575 H       
  36 H36            9.7864     5.4693    -0.2312 H       
  37 H37           10.6421     5.4334    -1.7916 H       
  38 H38            9.5425     3.2595    -1.3294 H       
  39 H39            8.8260     4.0474    -2.7556 H       
@<TRIPOS>BOND
   1    1    2 ar
   2    1    6 ar
   3    1   26 1
   4    2    3 ar
   5    2    7 1
   6    3    4 ar
   7    3   27 1
   8    4    5 ar
   9    4    8 1
  10    5    6 ar
  11    5   17 1
  12    6   28 1
  13    8    9 1
  14    8   14 2
  15    9   10 2
  16    9   13 1
  17   10   11 1
  18   10   29 1
  19   11   12 2
  20   11   30 1
  21   12   13 1
  22   12   31 1
  23   14   15 1
  24   15   16 1
  25   15   32 1
  26   15   33 1
  27   16   17 1
  28   16   18 2
  29   17   20 1
  30   18   19 1
  31   18   21 1
  32   19   20 2
  33   20   34 1
  34   21   22 2
  35   21   23 1
  36   23   25 1
  37   24   25 1
  38   24   35 1
  39   24   36 1
  40   24   37 1
  41   25   38 1
  42   25   39 1

#	End of record

