#	Name: ASD01940207
#	Creating user name:	WinNT
#	Creation time:	15. 06. 2019 20:12

#	Modifying user name:	WinNT
#	Modification time:	15. 06. 2019 20:12

#	Program:	/corina/corina34_cracker 3.40 0067  02.08.2006

@<TRIPOS>MOLECULE
ASD01940207
  51   52    0    0    0
SMALL
NO_CHARGES


@<TRIPOS>ATOM
   1 C1            -0.9188     1.1833     1.9052 C.3     
   2 F2            -2.4896    -5.3239     0.6091 F       
   3 C3            -1.4684    -5.7886     1.3617 C.ar    
   4 C4            -0.2029    -5.2309     1.2364 C.ar    
   5 C5             0.8475    -5.7135     2.0154 C.ar    
   6 C6             0.6242    -6.7480     2.9117 C.ar    
   7 C7            -0.6380    -7.2998     3.0318 C.ar    
   8 C8            -1.6841    -6.8188     2.2630 C.ar    
   9 N9             0.0177    -4.1858     0.3287 N.pl3   
  10 N10            2.1267    -5.1547     1.8928 N.am    
  11 C11           -0.2128    -2.8625     0.7168 C.ar    
  12 C12           -0.5828    -2.5750     2.0236 C.ar    
  13 C13           -0.8099    -1.2661     2.4040 C.ar    
  14 C14           -0.6695    -0.2425     1.4856 C.ar    
  15 C15           -0.3010    -0.5237     0.1822 C.ar    
  16 C16           -0.0665    -1.8299    -0.2044 C.ar    
  17 F17            0.2938    -2.1046    -1.4772 F       
  18 F18           -2.9166    -7.3576     2.3888 F       
  19 S19            3.4671    -6.1182     2.0242 S.o2    
  20 O20            4.5489    -5.2619     1.6839 O.2     
  21 O21            3.3637    -6.6874     3.3221 O.2     
  22 C22            4.3296    -9.2100     1.8640 C.3     
  23 C23            3.9053   -10.5913     1.3612 C.3     
  24 C24            2.4804   -10.5175     0.8087 C.3     
  25 C25            5.7280    -9.2984     2.4785 C.3     
  26 C26            6.1016    -7.9476     3.0924 C.3     
  27 C27            3.2371    -7.3898     0.7512 C.3     
  28 O28            4.3469    -8.2898     0.7709 O.3     
  29 H29            0.0108     1.6238     2.2656 H       
  30 H30           -1.2847     1.7544     1.0520 H       
  31 H31           -1.6628     1.2028     2.7016 H       
  32 H32            1.4368    -7.1231     3.5160 H       
  33 H33           -0.8091    -8.1056     3.7303 H       
  34 H34            0.3304    -4.3807    -0.5686 H       
  35 H35            2.2270    -4.2036     1.7310 H       
  36 H36           -0.6933    -3.3736     2.7422 H       
  37 H37           -1.0978    -1.0425     3.4206 H       
  38 H38           -0.1922     0.2785    -0.5328 H       
  39 H39            3.6224    -8.8650     2.6183 H       
  40 H40            4.5844   -10.9153     0.5725 H       
  41 H41            3.9391   -11.3041     2.1851 H       
  42 H42            1.8240   -10.0707     1.5554 H       
  43 H43            2.4720    -9.9071    -0.0943 H       
  44 H44            2.1302   -11.5220     0.5715 H       
  45 H45            5.7365   -10.0646     3.2537 H       
  46 H46            6.4496    -9.5574     1.7037 H       
  47 H47            7.0978    -8.0106     3.5301 H       
  48 H48            6.0931    -7.1814     2.3172 H       
  49 H49            5.3799    -7.6886     3.8672 H       
  50 H50            2.3184    -7.9414     0.9505 H       
  51 H51            3.1711    -6.9158    -0.2282 H       
@<TRIPOS>BOND
   1    1   14 1
   2    1   29 1
   3    1   30 1
   4    1   31 1
   5    2    3 1
   6    3    4 ar
   7    3    8 ar
   8    4    5 ar
   9    4    9 1
  10    5    6 ar
  11    5   10 1
  12    6    7 ar
  13    6   32 1
  14    7    8 ar
  15    7   33 1
  16    8   18 1
  17    9   11 1
  18    9   34 1
  19   10   19 am
  20   10   35 1
  21   11   12 ar
  22   11   16 ar
  23   12   13 ar
  24   12   36 1
  25   13   14 ar
  26   13   37 1
  27   14   15 ar
  28   15   16 ar
  29   15   38 1
  30   16   17 1
  31   19   20 2
  32   19   21 2
  33   19   27 1
  34   22   25 1
  35   22   28 1
  36   22   23 1
  37   22   39 1
  38   23   24 1
  39   23   40 1
  40   23   41 1
  41   24   42 1
  42   24   43 1
  43   24   44 1
  44   25   26 1
  45   25   45 1
  46   25   46 1
  47   26   47 1
  48   26   48 1
  49   26   49 1
  50   27   28 1
  51   27   50 1
  52   27   51 1

#	End of record

