#	Name: ASD03082246
#	Creating user name:	WinNT
#	Creation time:	15. 06. 2019 20:27

#	Modifying user name:	WinNT
#	Modification time:	15. 06. 2019 20:27

#	Program:	/corina/corina34_cracker 3.40 0067  02.08.2006

@<TRIPOS>MOLECULE
ASD03082246
  52   55    0    0    0
SMALL
NO_CHARGES


@<TRIPOS>ATOM
   1 N1            -0.0039     1.4543     0.0737 N.pl3   
   2 N2            -0.0320     0.0543    -0.0325 N.2     
   3 C3             1.1997    -0.3674     0.1386 C.2     
   4 N4             1.9948     0.6839     0.3451 N.2     
   5 C5             1.2835     1.7929     0.3090 C.2     
   6 N6             1.6109    -1.7014     0.1099 N.pl3   
   7 C7             2.9660    -2.0186     0.2493 C.ar    
   8 C8             3.4831    -3.1491    -0.3706 C.ar    
   9 C9             4.8214    -3.4601    -0.2320 C.ar    
  10 C10            5.6478    -2.6461     0.5246 C.ar    
  11 C11            5.1345    -1.5191     1.1436 C.ar    
  12 C12            3.7978    -1.2007     1.0027 C.ar    
  13 C13            5.3829    -4.6864    -0.9042 C.3     
  14 F14            4.3645    -5.3421    -1.6044 F       
  15 F15            6.3929    -4.3085    -1.7955 F       
  16 F16            5.9127    -5.5472     0.0631 F       
  17 N17            3.6233     4.6609     0.4940 N.ar    
  18 C18            3.1610     3.4387     0.3307 C.ar    
  19 C19            1.8025     3.1663     0.4932 C.ar    
  20 C20            0.9391     4.2133     0.8328 C.ar    
  21 C21            1.4745     5.4796     0.9931 C.ar    
  22 C22            2.8329     5.6676     0.8142 C.ar    
  23 C23           -1.1427     2.3672    -0.0521 C.3     
  24 F24            6.9567    -2.9525     0.6591 F       
  25 C25           -1.7911     2.5501     1.2960 C.2     
  26 N26           -2.8659     3.3533     1.4234 N.am    
  27 O27           -1.3457     1.9746     2.2662 O.2     
  28 C28           -3.4962     3.5311     2.7338 C.3     
  29 C29           -3.4039     4.0484     0.2514 C.3     
  30 C30            3.4199     7.0446     0.9883 C.3     
  31 C31            3.7951     7.4785     2.4068 C.3     
  32 C32            2.5713     8.0871     1.7191 C.3     
  33 H33            0.9568    -2.4082    -0.0066 H       
  34 H34            2.8389    -3.7846    -0.9601 H       
  35 H35            5.7807    -0.8861     1.7338 H       
  36 H36            3.3988    -0.3189     1.4819 H       
  37 H37            3.8395     2.6404     0.0682 H       
  38 H38           -0.1183     4.0382     0.9660 H       
  39 H39            0.8382     6.3121     1.2548 H       
  40 H40           -0.7959     3.3319    -0.4224 H       
  41 H41           -1.8679     1.9493    -0.7503 H       
  42 H42           -3.0336     4.3734     3.2482 H       
  43 H43           -4.5604     3.7261     2.6017 H       
  44 H44           -3.3635     2.6261     3.3267 H       
  45 H45           -4.1562     3.4226    -0.2286 H       
  46 H46           -3.8587     4.9885     0.5636 H       
  47 H47           -2.5970     4.2514    -0.4528 H       
  48 H48            4.0524     7.3928     0.1717 H       
  49 H49            3.6174     6.7679     3.2140 H       
  50 H50            4.6742     8.1124     2.5232 H       
  51 H51            2.6453     9.1214     1.3832 H       
  52 H52            1.5885     7.7770     2.0740 H       
@<TRIPOS>BOND
   1    1    2 1
   2    1    5 1
   3    1   23 1
   4    2    3 2
   5    3    4 1
   6    3    6 1
   7    4    5 2
   8    5   19 1
   9    6    7 1
  10    6   33 1
  11    7    8 ar
  12    7   12 ar
  13    8    9 ar
  14    8   34 1
  15    9   10 ar
  16    9   13 1
  17   10   11 ar
  18   10   24 1
  19   11   12 ar
  20   11   35 1
  21   12   36 1
  22   13   14 1
  23   13   15 1
  24   13   16 1
  25   17   18 ar
  26   17   22 ar
  27   18   19 ar
  28   18   37 1
  29   19   20 ar
  30   20   21 ar
  31   20   38 1
  32   21   22 ar
  33   21   39 1
  34   22   30 1
  35   23   25 1
  36   23   40 1
  37   23   41 1
  38   25   26 am
  39   25   27 2
  40   26   28 1
  41   26   29 1
  42   28   42 1
  43   28   43 1
  44   28   44 1
  45   29   45 1
  46   29   46 1
  47   29   47 1
  48   30   31 1
  49   30   32 1
  50   30   48 1
  51   31   32 1
  52   31   49 1
  53   31   50 1
  54   32   51 1
  55   32   52 1

#	End of record

