#	Name: ASD01150965
#	Creating user name:	WinNT
#	Creation time:	15. 06. 2019 19:05

#	Modifying user name:	WinNT
#	Modification time:	15. 06. 2019 19:05

#	Program:	/corina/corina34_cracker 3.40 0067  02.08.2006

@<TRIPOS>MOLECULE
ASD01150965
  46   48    0    0    0
SMALL
NO_CHARGES


@<TRIPOS>ATOM
   1 C1            -0.0154     1.2819     0.0091 C.2     
   2 N2             0.0021    -0.0041     0.0020 N.2     
   3 C3            -1.1909    -0.6077     0.0109 C.2     
   4 C4            -2.2604     0.2526     0.0264 C.2     
   5 S5            -1.6766     1.8598     0.0357 S.3     
   6 C6             1.2069     2.1635     0.0022 C.3     
   7 C7             2.0546     1.8697     1.2415 C.3     
   8 C8             2.0301     1.8840    -1.2568 C.3     
   9 N9            -3.5949    -0.1204     0.0376 N.am    
  10 C10           -4.5580     0.8223     0.0525 C.2     
  11 C11           -6.0093     0.4166     0.0646 C.3     
  12 O12           -4.2567     1.9970     0.0562 O.2     
  13 C13           -1.3438    -2.0643     0.0042 C.2     
  14 O14           -2.4549    -2.5593     0.0125 O.2     
  15 O15           -0.2524    -2.8569    -0.0111 O.3     
  16 C16           -0.4793    -4.2911    -0.0169 C.3     
  17 C17            0.8657    -5.0201    -0.0344 C.3     
  18 O18           -6.8346     1.5792     0.1969 O.3     
  19 C19           -8.1598     1.4222    -0.0705 C.ar    
  20 C20           -8.6164     0.3174    -0.7794 C.ar    
  21 O21           -7.7495    -0.6358    -1.2180 O.3     
  22 C22           -6.3642    -0.2763    -1.2580 C.3     
  23 C23           -9.0616     2.3790     0.3713 C.ar    
  24 C24          -10.4100     2.2345     0.1057 C.ar    
  25 C25          -10.8640     1.1364    -0.6010 C.ar    
  26 C26           -9.9709     0.1793    -1.0439 C.ar    
  27 H27            0.9005     3.2095     0.0111 H       
  28 H28            2.3610     0.8237     1.2325 H       
  29 H29            2.9387     2.5073     1.2365 H       
  30 H30            1.4681     2.0688     2.1384 H       
  31 H31            2.9142     2.5216    -1.2618 H       
  32 H32            2.3365     0.8379    -1.2658 H       
  33 H33            1.4262     2.0933    -2.1398 H       
  34 H34           -3.8359    -1.0600     0.0347 H       
  35 H35           -6.1943    -0.2622     0.8972 H       
  36 H36           -1.0347    -4.5747     0.8770 H       
  37 H37           -1.0524    -4.5646    -0.9028 H       
  38 H38            0.6954    -6.0967    -0.0388 H       
  39 H39            1.4212    -4.7365    -0.9284 H       
  40 H40            1.4388    -4.7466     0.8515 H       
  41 H41           -6.1851     0.4053    -2.0896 H       
  42 H42           -5.7552    -1.1722    -1.3786 H       
  43 H43           -8.7096     3.2376     0.9237 H       
  44 H44          -11.1105     2.9804     0.4512 H       
  45 H45          -11.9184     1.0262    -0.8071 H       
  46 H46          -10.3281    -0.6775    -1.5960 H       
@<TRIPOS>BOND
   1    1    2 2
   2    1    6 1
   3    1    5 1
   4    2    3 1
   5    3    4 2
   6    3   13 1
   7    4    5 1
   8    4    9 1
   9    6    7 1
  10    6    8 1
  11    6   27 1
  12    7   28 1
  13    7   29 1
  14    7   30 1
  15    8   31 1
  16    8   32 1
  17    8   33 1
  18    9   10 am
  19    9   34 1
  20   10   11 1
  21   10   12 2
  22   11   18 1
  23   11   22 1
  24   11   35 1
  25   13   14 2
  26   13   15 1
  27   15   16 1
  28   16   17 1
  29   16   36 1
  30   16   37 1
  31   17   38 1
  32   17   39 1
  33   17   40 1
  34   18   19 1
  35   19   20 ar
  36   19   23 ar
  37   20   21 1
  38   20   26 ar
  39   21   22 1
  40   22   41 1
  41   22   42 1
  42   23   24 ar
  43   23   43 1
  44   24   25 ar
  45   24   44 1
  46   25   26 ar
  47   25   45 1
  48   26   46 1

#	End of record

