#	Name: ASD01410043
#	Creating user name:	WinNT
#	Creation time:	15. 06. 2019 19:16

#	Modifying user name:	WinNT
#	Modification time:	15. 06. 2019 19:16

#	Program:	/corina/corina34_cracker 3.40 0067  02.08.2006

@<TRIPOS>MOLECULE
ASD01410043
  39   40    0    0    0
SMALL
NO_CHARGES


@<TRIPOS>ATOM
   1 C1             0.4002     1.0942    -0.0894 C.ar    
   2 C2             0.1445    -0.2582    -0.0386 C.ar    
   3 C3            -1.1783    -0.7174    -0.0015 C.ar    
   4 C4            -2.2350     0.2106    -0.0165 C.ar    
   5 C5            -1.9544     1.5704    -0.0679 C.ar    
   6 C6            -0.6460     2.0062    -0.0986 C.ar    
   7 N7            -3.5504    -0.2295     0.0194 N.pl3   
   8 C8            -4.6444     0.7395     0.1214 C.3     
   9 C9            -5.9623     0.0089     0.1417 C.2     
  10 N10           -7.1152     0.7012     0.2314 N.am    
  11 C11           -8.3354     0.0376     0.1307 C.ar    
  12 C12           -8.4206    -1.1656    -0.5562 C.ar    
  13 C13           -9.6313    -1.8218    -0.6549 C.ar    
  14 C14          -10.7684    -1.2871    -0.0716 C.ar    
  15 C15          -10.7034    -0.0936     0.6145 C.ar    
  16 C16           -9.4842     0.5791     0.7283 C.ar    
  17 C17           -9.4073     1.8556     1.4610 C.2     
  18 O18          -10.4912     2.3277     2.1077 O.3     
  19 O19           -8.3665     2.4824     1.4818 O.2     
  20 O20           -5.9854    -1.2019     0.0774 O.2     
  21 C21           -1.4593    -2.1558     0.0521 C.2     
  22 Cl22           2.0402     1.6614    -0.1348 Cl      
  23 C23           -0.3309    -3.1486    -0.0569 C.3     
  24 O24           -2.6002    -2.5464     0.1843 O.2     
  25 H25            0.9624    -0.9633    -0.0279 H       
  26 H26           -2.7619     2.2875    -0.0799 H       
  27 H27           -0.4343     3.0645    -0.1382 H       
  28 H28           -3.7456    -1.1787    -0.0230 H       
  29 H29           -4.5345     1.3163     1.0398 H       
  30 H30           -4.6151     1.4122    -0.7358 H       
  31 H31           -7.0951     1.6616     0.3661 H       
  32 H32           -7.5388    -1.5887    -1.0144 H       
  33 H33           -9.6923    -2.7576    -1.1905 H       
  34 H34          -11.7108    -1.8081    -0.1552 H       
  35 H35          -11.5930     0.3190     1.0671 H       
  36 H36          -10.3923     3.1689     2.5742 H       
  37 H37            0.6129    -2.6151    -0.1696 H       
  38 H38           -0.2969    -3.7606     0.8444 H       
  39 H39           -0.4924    -3.7884    -0.9246 H       
@<TRIPOS>BOND
   1    1    2 ar
   2    1   22 1
   3    1    6 ar
   4    2    3 ar
   5    2   25 1
   6    3    4 ar
   7    3   21 1
   8    4    5 ar
   9    4    7 1
  10    5    6 ar
  11    5   26 1
  12    6   27 1
  13    7    8 1
  14    7   28 1
  15    8    9 1
  16    8   29 1
  17    8   30 1
  18    9   10 am
  19    9   20 2
  20   10   11 1
  21   10   31 1
  22   11   12 ar
  23   11   16 ar
  24   12   13 ar
  25   12   32 1
  26   13   14 ar
  27   13   33 1
  28   14   15 ar
  29   14   34 1
  30   15   16 ar
  31   15   35 1
  32   16   17 1
  33   17   18 1
  34   17   19 2
  35   18   36 1
  36   21   23 1
  37   21   24 2
  38   23   37 1
  39   23   38 1
  40   23   39 1

#	End of record

