#	Name: ASD02508046
#	Creating user name:	WinNT
#	Creation time:	15. 06. 2019 20:23

#	Modifying user name:	WinNT
#	Modification time:	15. 06. 2019 20:23

#	Program:	/corina/corina34_cracker 3.40 0067  02.08.2006

@<TRIPOS>MOLECULE
ASD02508046
  38   40    0    0    0
SMALL
NO_CHARGES


@<TRIPOS>ATOM
   1 C1            -0.0119     1.3909    -0.0070 C.ar    
   2 C2             0.0073     0.0098     0.1098 C.ar    
   3 C3             1.1823     2.1000    -0.1343 C.ar    
   4 C4             2.3895     1.4196    -0.1435 C.ar    
   5 C5             2.4043     0.0376    -0.0260 C.ar    
   6 C6             1.2116    -0.6654     0.1001 C.ar    
   7 N7            -1.0410     2.3354    -0.0357 N.am    
   8 C8            -0.4716     3.5497    -0.1688 C.2     
   9 O9             0.8624     3.4140    -0.2293 O.3     
  10 N10            3.6223    -0.6505    -0.0351 N.am    
  11 S11            4.9592     0.0231     0.6729 S.o2    
  12 C12            4.5803     0.2669     2.3763 C.ar    
  13 C13            4.8506    -0.7298     3.2906 C.ar    
  14 C14           -2.4760     2.0568     0.0607 C.3     
  15 O15           -1.0735     4.6046    -0.2291 O.2     
  16 O16            5.9790    -0.9653     0.6261 O.2     
  17 O17            5.1047     1.3175     0.1049 O.2     
  18 C18            1.2332    -2.1669     0.2273 C.3     
  19 C19            4.0177     1.4600     2.7942 C.ar    
  20 C20            3.7174     1.6611     4.1304 C.ar    
  21 C21            3.9769     0.6721     5.0554 C.ar    
  22 C22            4.5497    -0.5343     4.6415 C.ar    
  23 C23            4.8301    -1.5960     5.6235 C.2     
  24 O24            4.5640    -1.4247     6.7946 O.2     
  25 Cl25           5.5414    -3.0923     5.1048 Cl      
  26 H26           -0.9186    -0.5373     0.2086 H       
  27 H27            3.3169     1.9643    -0.2422 H       
  28 H28            3.6837    -1.5222    -0.4561 H       
  29 H29            5.2932    -1.6590     2.9635 H       
  30 H30           -2.7802     2.0752     1.1072 H       
  31 H31           -3.0312     2.8145    -0.4924 H       
  32 H32           -2.6844     1.0736    -0.3611 H       
  33 H33            1.2949    -2.4414     1.2804 H       
  34 H34            0.3216    -2.5812    -0.2033 H       
  35 H35            2.0986    -2.5641    -0.3030 H       
  36 H36            3.8121     2.2383     2.0743 H       
  37 H37            3.2790     2.5952     4.4492 H       
  38 H38            3.7424     0.8306     6.0976 H       
@<TRIPOS>BOND
   1    1    2 ar
   2    1    3 ar
   3    1    7 1
   4    2    6 ar
   5    2   26 1
   6    3    4 ar
   7    3    9 1
   8    4    5 ar
   9    4   27 1
  10    5    6 ar
  11    5   10 1
  12    6   18 1
  13    7    8 am
  14    7   14 1
  15    8    9 1
  16    8   15 2
  17   10   11 am
  18   10   28 1
  19   11   12 1
  20   11   16 2
  21   11   17 2
  22   12   13 ar
  23   12   19 ar
  24   13   22 ar
  25   13   29 1
  26   14   30 1
  27   14   31 1
  28   14   32 1
  29   18   33 1
  30   18   34 1
  31   18   35 1
  32   19   20 ar
  33   19   36 1
  34   20   21 ar
  35   20   37 1
  36   21   22 ar
  37   21   38 1
  38   22   23 1
  39   23   24 2
  40   23   25 1

#	End of record

