#	Name: ASD01917343
#	Creating user name:	WinNT
#	Creation time:	15. 06. 2019 20:09

#	Modifying user name:	WinNT
#	Modification time:	15. 06. 2019 20:09

#	Program:	/corina/corina34_cracker 3.40 0067  02.08.2006

@<TRIPOS>MOLECULE
ASD01917343
  53   56    0    0    0
SMALL
NO_CHARGES


@<TRIPOS>ATOM
   1 C1            -0.0308     1.3134    -0.0034 C.ar    
   2 N2            -0.0101    -0.0023    -0.0075 N.ar    
   3 C3             1.1442    -0.6644    -0.0155 C.ar    
   4 C4             2.3369     0.0598    -0.0194 C.ar    
   5 C5             2.2643     1.4455    -0.0148 C.ar    
   6 N6             1.0776     2.0281    -0.0069 N.ar    
   7 C7             1.1627    -2.1488    -0.0197 C.2     
   8 O8             2.2222    -2.7430    -0.0269 O.2     
   9 N9             0.0040    -2.8372    -0.0153 N.am    
  10 C10            0.0223    -4.3021    -0.0194 C.3     
  11 C11            0.7486    -4.8795    -1.2469 C.3     
  12 C12            0.9254    -6.3874    -1.0581 C.3     
  13 C13           -0.4287    -7.0548    -0.8098 C.3     
  14 C14           -1.1044    -6.3838     0.3989 C.3     
  15 C15           -0.0351    -6.2408     1.5066 C.3     
  16 C16            0.6991    -4.8926     1.2391 C.3     
  17 C17           -1.4018    -4.9180    -0.0140 C.3     
  18 C18           -2.3270    -7.1309     0.8657 C.2     
  19 N19           -2.2212    -8.4138     1.2652 N.am    
  20 O20           -3.4062    -6.5778     0.8818 O.2     
  21 C21           -3.3289    -9.0715     1.7980 C.ar    
  22 C22           -3.2435   -10.4243     2.1076 C.ar    
  23 C23           -4.3502   -11.0647     2.6363 C.ar    
  24 C24           -5.5089   -10.3270     2.8379 C.ar    
  25 C25           -5.5228    -8.9864     2.5076 C.ar    
  26 N26           -4.4503    -8.4012     2.0096 N.ar    
  27 C27           -6.7775    -8.1801     2.7235 C.3     
  28 C28           -1.3596     2.0241    -0.0008 C.3     
  29 H29            3.2917    -0.4450    -0.0255 H       
  30 H30            3.1657     2.0405    -0.0173 H       
  31 H31           -0.8420    -2.3627    -0.0095 H       
  32 H32            0.1570    -4.6910    -2.1428 H       
  33 H33            1.7260    -4.4076    -1.3477 H       
  34 H34            1.3782    -6.8125    -1.9538 H       
  35 H35            1.5792    -6.5699    -0.2053 H       
  36 H36           -1.0595    -6.9388    -1.6911 H       
  37 H37           -0.2804    -8.1146    -0.6028 H       
  38 H38           -0.5116    -6.2185     2.4866 H       
  39 H39            0.6732    -7.0676     1.4525 H       
  40 H40            1.7567    -5.0725     1.0462 H       
  41 H41            0.5820    -4.2114     2.0819 H       
  42 H42           -2.0414    -4.4174     0.7130 H       
  43 H43           -1.8450    -4.8866    -1.0093 H       
  44 H44           -1.3744    -8.8794     1.1820 H       
  45 H45           -2.3260   -10.9679     1.9374 H       
  46 H46           -4.3136   -12.1148     2.8861 H       
  47 H47           -6.3904   -10.7969     3.2486 H       
  48 H48           -6.7644    -7.7486     3.7244 H       
  49 H49           -6.8276    -7.3809     1.9839 H       
  50 H50           -7.6481    -8.8275     2.6184 H       
  51 H51           -1.6797     2.1923     1.0275 H       
  52 H52           -1.2604     2.9819    -0.5116 H       
  53 H53           -2.0999     1.4124    -0.5163 H       
@<TRIPOS>BOND
   1    1    2 ar
   2    1    6 ar
   3    1   28 1
   4    2    3 ar
   5    3    4 ar
   6    3    7 1
   7    4    5 ar
   8    4   29 1
   9    5    6 ar
  10    5   30 1
  11    7    8 2
  12    7    9 am
  13    9   10 1
  14    9   31 1
  15   10   11 1
  16   10   16 1
  17   10   17 1
  18   11   12 1
  19   11   32 1
  20   11   33 1
  21   12   13 1
  22   12   34 1
  23   12   35 1
  24   13   14 1
  25   13   36 1
  26   13   37 1
  27   14   15 1
  28   14   17 1
  29   14   18 1
  30   15   16 1
  31   15   38 1
  32   15   39 1
  33   16   40 1
  34   16   41 1
  35   17   42 1
  36   17   43 1
  37   18   19 am
  38   18   20 2
  39   19   21 1
  40   19   44 1
  41   21   22 ar
  42   21   26 ar
  43   22   23 ar
  44   22   45 1
  45   23   24 ar
  46   23   46 1
  47   24   25 ar
  48   24   47 1
  49   25   26 ar
  50   25   27 1
  51   27   48 1
  52   27   49 1
  53   27   50 1
  54   28   51 1
  55   28   52 1
  56   28   53 1

#	End of record

