#	Name: ASD01840243
#	Creating user name:	WinNT
#	Creation time:	15. 06. 2019 19:37

#	Modifying user name:	WinNT
#	Modification time:	15. 06. 2019 19:37

#	Program:	/corina/corina34_cracker 3.40 0067  02.08.2006

@<TRIPOS>MOLECULE
ASD01840243
  47   50    0    0    0
SMALL
NO_CHARGES


@<TRIPOS>ATOM
   1 C1            -2.0565     1.3087    -0.0830 C.3     
   2 C2            -1.4327    -0.0632    -0.0890 C.ar    
   3 C3            -1.3096    -0.7500    -1.2856 C.ar    
   4 C4            -0.7381    -2.0050    -1.2888 C.ar    
   5 C5            -0.5890    -2.7784    -2.5736 C.3     
   6 C6            -0.2955    -2.5500    -0.0656 C.ar    
   7 C7            -0.4532    -1.7989     1.0974 C.ar    
   8 N8            -1.0100    -0.5853     1.0395 N.ar    
   9 S9             0.1704    -2.6849     2.4815 S.3     
  10 C10            0.6413    -4.0612     1.4965 C.2     
  11 C11            1.2413    -5.3425     1.5977 C.2     
  12 N12            1.7007    -5.9404     2.7780 N.pl3   
  13 C13            2.3027    -7.2754     2.7367 C.3     
  14 C14            2.7102    -7.6859     4.1282 C.ar    
  15 C15            3.9733    -7.3777     4.5974 C.ar    
  16 C16            4.3486    -7.7538     5.8739 C.ar    
  17 C17            3.4611    -8.4383     6.6821 C.ar    
  18 C18            2.1952    -8.7473     6.2132 C.ar    
  19 F19            1.3267    -9.4165     7.0025 F       
  20 C20            1.8188    -8.3656     4.9369 C.ar    
  21 S21            3.9401    -8.9184     8.3084 S.o2    
  22 C22            2.8483    -7.9674     9.4011 C.3     
  23 O23            3.6262   -10.3028     8.3718 O.2     
  24 O24            5.2817    -8.4652     8.4267 O.2     
  25 N25            1.2926    -5.8713     0.4032 N.2     
  26 N26            0.7383    -4.9746    -0.5143 N.pl3   
  27 C27            0.6059    -5.1886    -1.9575 C.3     
  28 C28            0.3361    -3.8493     0.1830 C.2     
  29 H29           -1.2819     2.0607    -0.2331 H       
  30 H30           -2.7903     1.3777    -0.8860 H       
  31 H31           -2.5484     1.4799     0.8745 H       
  32 H32           -1.6581    -0.3072    -2.2069 H       
  33 H33            0.4234    -2.6533    -2.9575 H       
  34 H34           -0.7784    -3.8352    -2.3856 H       
  35 H35           -1.3043    -2.4059    -3.3070 H       
  36 H36            1.6204    -5.4705     3.6228 H       
  37 H37            1.5777    -7.9888     2.3450 H       
  38 H38            3.1808    -7.2582     2.0911 H       
  39 H39            4.6677    -6.8430     3.9663 H       
  40 H40            5.3358    -7.5127     6.2394 H       
  41 H41            0.8304    -8.6024     4.5717 H       
  42 H42            1.8101    -8.2240     9.1903 H       
  43 H43            3.0775    -8.2049    10.4399 H       
  44 H44            3.0012    -6.9019     9.2298 H       
  45 H45           -0.4029    -5.5348    -2.1824 H       
  46 H46            0.7940    -4.2520    -2.4824 H       
  47 H47            1.3279    -5.9381    -2.2815 H       
@<TRIPOS>BOND
   1    1    2 1
   2    1   29 1
   3    1   30 1
   4    1   31 1
   5    2    8 ar
   6    2    3 ar
   7    3    4 ar
   8    3   32 1
   9    4    5 1
  10    4    6 ar
  11    5   33 1
  12    5   34 1
  13    5   35 1
  14    6   28 1
  15    6    7 ar
  16    7    8 ar
  17    7    9 1
  18    9   10 1
  19   10   28 2
  20   10   11 1
  21   11   12 1
  22   11   25 2
  23   12   13 1
  24   12   36 1
  25   13   14 1
  26   13   37 1
  27   13   38 1
  28   14   20 ar
  29   14   15 ar
  30   15   16 ar
  31   15   39 1
  32   16   17 ar
  33   16   40 1
  34   17   18 ar
  35   17   21 1
  36   18   19 1
  37   18   20 ar
  38   20   41 1
  39   21   22 1
  40   21   23 2
  41   21   24 2
  42   22   42 1
  43   22   43 1
  44   22   44 1
  45   25   26 1
  46   26   27 1
  47   26   28 1
  48   27   45 1
  49   27   46 1
  50   27   47 1

#	End of record

