#	Name: ASD01882258
#	Creating user name:	WinNT
#	Creation time:	15. 06. 2019 19:44

#	Modifying user name:	WinNT
#	Modification time:	15. 06. 2019 19:44

#	Program:	/corina/corina34_cracker 3.40 0067  02.08.2006

@<TRIPOS>MOLECULE
ASD01882258
  44   45    0    0    0
SMALL
NO_CHARGES


@<TRIPOS>ATOM
   1 N1            -0.0165     1.3692     0.0096 N.pl3   
   2 O2             1.1412    -0.7243    -0.0127 O.3     
   3 C3             0.0021    -0.0041     0.0020 C.2     
   4 N4            -1.0753    -0.7270     0.0089 N.2     
   5 C5            -0.6823    -2.1496     0.0076 C.3     
   6 C6             0.8153    -2.0697     0.3922 C.3     
   7 C7             1.6390    -3.0940    -0.3909 C.3     
   8 O8             3.0178    -2.9666    -0.0377 O.3     
   9 C9             3.8788    -3.8829    -0.7168 C.3     
  10 C10            5.2621    -3.2518    -0.8877 C.3     
  11 C11            6.1839    -4.2329    -1.6148 C.3     
  12 C12            6.3078    -5.5190    -0.7955 C.3     
  13 C13            4.9246    -6.1501    -0.6246 C.3     
  14 C14            4.0027    -5.1691     0.1025 C.3     
  15 C15            7.2297    -6.5001    -1.5226 C.3     
  16 C16            8.6129    -5.8690    -1.6935 C.3     
  17 C17            7.3536    -7.7863    -0.7033 C.3     
  18 C18            6.6443    -6.8260    -2.8981 C.3     
  19 H19            0.8168     1.8655     0.0043 H       
  20 H20           -0.8631     1.8427     0.0162 H       
  21 H21           -1.2463    -2.7101     0.7532 H       
  22 H22           -0.8071    -2.5872    -0.9829 H       
  23 H23            0.9511    -2.1991     1.4659 H       
  24 H24            1.2935    -4.0992    -0.1495 H       
  25 H25            1.5198    -2.9156    -1.4596 H       
  26 H26            3.4618    -4.1151    -1.6967 H       
  27 H27            5.1738    -2.3355    -1.4714 H       
  28 H28            5.6791    -3.0196     0.0922 H       
  29 H29            5.7669    -4.4651    -2.5948 H       
  30 H30            7.1694    -3.7833    -1.7366 H       
  31 H31            6.7249    -5.2868     0.1844 H       
  32 H32            4.5076    -6.3823    -1.6045 H       
  33 H33            5.0129    -7.0664    -0.0409 H       
  34 H34            4.4198    -4.9369     1.0825 H       
  35 H35            3.0173    -5.6187     0.2243 H       
  36 H36            9.0300    -5.6368    -0.7136 H       
  37 H37            9.2697    -6.5679    -2.2115 H       
  38 H38            8.5247    -4.9527    -2.2772 H       
  39 H39            6.3681    -8.2359    -0.5815 H       
  40 H40            8.0103    -8.4852    -1.2213 H       
  41 H41            7.7706    -7.5541     0.2767 H       
  42 H42            6.5560    -5.9097    -3.4818 H       
  43 H43            7.3011    -7.5249    -3.4161 H       
  44 H44            5.6589    -7.2756    -2.7763 H       
@<TRIPOS>BOND
   1    1    3 1
   2    1   19 1
   3    1   20 1
   4    2    3 1
   5    2    6 1
   6    3    4 2
   7    4    5 1
   8    5    6 1
   9    5   21 1
  10    5   22 1
  11    6    7 1
  12    6   23 1
  13    7    8 1
  14    7   24 1
  15    7   25 1
  16    8    9 1
  17    9   10 1
  18    9   14 1
  19    9   26 1
  20   10   11 1
  21   10   27 1
  22   10   28 1
  23   11   12 1
  24   11   29 1
  25   11   30 1
  26   12   13 1
  27   12   15 1
  28   12   31 1
  29   13   14 1
  30   13   32 1
  31   13   33 1
  32   14   34 1
  33   14   35 1
  34   15   16 1
  35   15   18 1
  36   15   17 1
  37   16   36 1
  38   16   37 1
  39   16   38 1
  40   17   39 1
  41   17   40 1
  42   17   41 1
  43   18   42 1
  44   18   43 1
  45   18   44 1

#	End of record

