#	Name: ASD01913516
#	Creating user name:	WinNT
#	Creation time:	15. 06. 2019 20:01

#	Modifying user name:	WinNT
#	Modification time:	15. 06. 2019 20:01

#	Program:	/corina/corina34_cracker 3.40 0067  02.08.2006

@<TRIPOS>MOLECULE
ASD01913516
  33   35    0    0    0
SMALL
NO_CHARGES


@<TRIPOS>ATOM
   1 C1            -0.3510    -0.7002    -2.1236 C.ar    
   2 C2            -0.8020    -0.0340    -0.9886 C.ar    
   3 C3            -0.7774     1.3570    -0.9873 C.ar    
   4 N4            -0.3293     1.9921    -2.0577 N.ar    
   5 C5             0.0897     1.3248    -3.1142 C.ar    
   6 N6             0.0821     0.0075    -3.1538 N.ar    
   7 C7            -1.2375    -2.0818     0.0335 C.ar    
   8 C8            -0.0433    -2.7757     0.1692 C.ar    
   9 N9            -0.0176    -4.0929     0.1201 N.ar    
  10 C10           -1.1129    -4.8037    -0.0580 C.ar    
  11 C11           -2.3478    -4.1833    -0.2022 C.ar    
  12 C12           -2.4163    -2.7942    -0.1562 C.ar    
  13 N13           -3.5058    -4.9444    -0.3914 N.am    
  14 C14           -4.6711    -4.5456     0.1558 C.2     
  15 O15           -1.2553    -0.7242     0.0908 O.3     
  16 C16           -5.8707    -5.4088     0.0544 C.ar    
  17 O17           -4.7378    -3.4780     0.7325 O.2     
  18 N18           -5.7916    -6.5739    -0.5768 N.ar    
  19 C19           -6.8325    -7.3703    -0.6895 C.ar    
  20 C20           -8.0589    -7.0192    -0.1499 C.ar    
  21 C21           -8.1866    -5.8100     0.5184 C.ar    
  22 C22           -7.0707    -4.9936     0.6270 C.ar    
  23 Br23          -9.8420    -5.2907     1.2705 Br      
  24 H24           -0.3502    -1.7796    -2.1613 H       
  25 H25           -1.1195     1.9102    -0.1252 H       
  26 H26            0.4496     1.8733    -3.9721 H       
  27 H27            0.8768    -2.2296     0.3164 H       
  28 H28           -1.0498    -5.8813    -0.0928 H       
  29 H29           -3.3612    -2.2825    -0.2646 H       
  30 H30           -3.4702    -5.7592    -0.9165 H       
  31 H31           -6.7295    -8.3108    -1.2103 H       
  32 H32           -8.9075    -7.6799    -0.2487 H       
  33 H33           -7.1334    -4.0454     1.1403 H       
@<TRIPOS>BOND
   1    1    2 ar
   2    1    6 ar
   3    1   24 1
   4    2    3 ar
   5    2   15 1
   6    3    4 ar
   7    3   25 1
   8    4    5 ar
   9    5    6 ar
  10    5   26 1
  11    7    8 ar
  12    7   12 ar
  13    7   15 1
  14    8    9 ar
  15    8   27 1
  16    9   10 ar
  17   10   11 ar
  18   10   28 1
  19   11   12 ar
  20   11   13 1
  21   12   29 1
  22   13   14 am
  23   13   30 1
  24   14   16 1
  25   14   17 2
  26   16   18 ar
  27   16   22 ar
  28   18   19 ar
  29   19   20 ar
  30   19   31 1
  31   20   21 ar
  32   20   32 1
  33   21   22 ar
  34   21   23 1
  35   22   33 1

#	End of record

