#	Name: ASD01884087
#	Creating user name:	WinNT
#	Creation time:	15. 06. 2019 19:47

#	Modifying user name:	WinNT
#	Modification time:	15. 06. 2019 19:47

#	Program:	/corina/corina34_cracker 3.40 0067  02.08.2006

@<TRIPOS>MOLECULE
ASD01884087
  57   59    0    0    0
SMALL
NO_CHARGES


@<TRIPOS>ATOM
   1 C1            -0.2233     1.6062     0.2949 C.2     
   2 C2            -0.3271     0.2175     0.3014 C.2     
   3 C3            -1.5864    -0.3655     0.4485 C.2     
   4 C4            -2.6875     0.4160     0.5822 C.2     
   5 N5            -2.5943     1.7680     0.5768 N.am    
   6 C6            -1.4030     2.3814     0.4438 C.2     
   7 O7            -1.3390     3.5988     0.4412 O.2     
   8 C8            -3.8083     2.5748     0.7234 C.3     
   9 C9            -4.0618     2.8498     2.2070 C.3     
  10 C10           -5.3296     3.6924     2.3602 C.3     
  11 C11           -6.5393     2.8847     1.8857 C.3     
  12 C12           -5.5150     4.0723     3.8306 C.3     
  13 C13            1.0517     2.2409     0.1466 C.1     
  14 N14            2.0632     2.7444     0.0289 N.1     
  15 C15            0.9014    -0.6423     0.1513 C.3     
  16 N16            1.3955    -1.0266     1.4803 N.3     
  17 C17            2.4432    -2.0519     1.3764 C.3     
  18 C18            2.9857    -2.3663     2.7726 C.3     
  19 N19            1.8851    -2.8271     3.6306 N.3     
  20 C20            0.8374    -1.8018     3.7345 C.3     
  21 C21            0.2950    -1.4874     2.3383 C.3     
  22 C22            2.3526    -3.1907     4.8882 C.ar    
  23 C23            2.2464    -4.5128     5.3072 C.ar    
  24 C24            2.7162    -4.8610     6.5610 C.ar    
  25 C25            3.2783    -3.8715     7.3563 C.ar    
  26 C26            3.3517    -2.5789     6.8767 C.ar    
  27 N27            2.9000    -2.2765     5.6744 N.ar    
  28 C28            1.6277    -5.5517     4.4078 C.3     
  29 F29            1.6235    -6.7897     5.0594 F       
  30 F30            0.3137    -5.1811     4.1024 F       
  31 F31            2.3714    -5.6488     3.2269 F       
  32 H32           -1.6848    -1.4410     0.4557 H       
  33 H33           -3.6563    -0.0480     0.6946 H       
  34 H34           -3.6824     3.5199     0.1951 H       
  35 H35           -4.6567     2.0342     0.3039 H       
  36 H36           -4.1876     1.9047     2.7354 H       
  37 H37           -3.2133     3.3904     2.6265 H       
  38 H38           -5.2390     4.5976     1.7597 H       
  39 H39           -6.4072     2.6140     0.8382 H       
  40 H40           -6.6299     1.9795     2.4862 H       
  41 H41           -7.4425     3.4850     1.9948 H       
  42 H42           -4.6532     4.6478     4.1686 H       
  43 H43           -6.4182     4.6727     3.9397 H       
  44 H44           -5.6056     3.1672     4.4311 H       
  45 H45            0.6506    -1.5385    -0.4162 H       
  46 H46            1.6743    -0.0829    -0.3758 H       
  47 H47            2.0240    -2.9570     0.9368 H       
  48 H48            3.2524    -1.6824     0.7466 H       
  49 H49            3.7426    -3.1474     2.7012 H       
  50 H50            3.4292    -1.4677     3.2013 H       
  51 H51            0.0282    -2.1713     4.3643 H       
  52 H52            1.2566    -0.8967     4.1741 H       
  53 H53           -0.4620    -0.7063     2.4097 H       
  54 H54           -0.1486    -2.3860     1.9096 H       
  55 H55            2.6469    -5.8795     6.9134 H       
  56 H56            3.6541    -4.1104     8.3402 H       
  57 H57            3.7879    -1.8060     7.4921 H       
@<TRIPOS>BOND
   1    1    2 2
   2    1   13 1
   3    1    6 1
   4    2    3 1
   5    2   15 1
   6    3    4 2
   7    3   32 1
   8    4    5 1
   9    4   33 1
  10    5    6 am
  11    5    8 1
  12    6    7 2
  13    8    9 1
  14    8   34 1
  15    8   35 1
  16    9   10 1
  17    9   36 1
  18    9   37 1
  19   10   11 1
  20   10   12 1
  21   10   38 1
  22   11   39 1
  23   11   40 1
  24   11   41 1
  25   12   42 1
  26   12   43 1
  27   12   44 1
  28   13   14 3
  29   15   16 1
  30   15   45 1
  31   15   46 1
  32   16   17 1
  33   16   21 1
  34   17   18 1
  35   17   47 1
  36   17   48 1
  37   18   19 1
  38   18   49 1
  39   18   50 1
  40   19   20 1
  41   19   22 1
  42   20   21 1
  43   20   51 1
  44   20   52 1
  45   21   53 1
  46   21   54 1
  47   22   23 ar
  48   22   27 ar
  49   23   28 1
  50   23   24 ar
  51   24   25 ar
  52   24   55 1
  53   25   26 ar
  54   25   56 1
  55   26   27 ar
  56   26   57 1
  57   28   29 1
  58   28   30 1
  59   28   31 1

#	End of record

