#	Name: ASD08390002
#	Creating user name:	WinNT
#	Creation time:	15. 06. 2019 21:19

#	Modifying user name:	WinNT
#	Modification time:	15. 06. 2019 21:19

#	Program:	/corina/corina34_cracker 3.40 0067  02.08.2006

@<TRIPOS>MOLECULE
ASD08390002
  66   70    0    0    0
SMALL
NO_CHARGES


@<TRIPOS>ATOM
   1 C1            -0.0742     1.3366     0.0143 C.2     
   2 N2            -0.1817     0.0518    -0.0691 N.2     
   3 C3            -1.5958    -0.3426    -0.0057 C.3     
   4 C4            -2.3511     0.9937     0.1369 C.3     
   5 N5            -1.2704     1.9939     0.1430 N.pl3   
   6 C6            -3.1160     1.0362     1.4346 C.ar    
   7 C7            -4.4732     0.7737     1.4458 C.ar    
   8 C8            -5.1749     0.8127     2.6362 C.ar    
   9 C9            -4.5193     1.1139     3.8154 C.ar    
  10 C10           -3.1620     1.3755     3.8043 C.ar    
  11 C11           -2.4595     1.3322     2.6145 C.ar    
  12 C12           -1.8458    -1.2211     1.1930 C.2     
  13 C13           -2.0100    -1.0614    -1.2913 C.3     
  14 O14           -1.1047    -1.0702     2.3019 O.3     
  15 O15           -2.7135    -2.0611     1.1558 O.2     
  16 C16           -1.4010    -1.9509     3.4176 C.3     
  17 C17           -1.4443     3.4440     0.2583 C.3     
  18 C18           -1.5662     4.0462    -1.1177 C.ar    
  19 C19           -2.8139     4.2299    -1.6838 C.ar    
  20 C20           -2.9257     4.7823    -2.9460 C.ar    
  21 C21           -1.7899     5.1515    -3.6420 C.ar    
  22 C22           -0.5422     4.9687    -3.0756 C.ar    
  23 C23           -0.4306     4.4203    -1.8116 C.ar    
  24 C24            1.2294     2.0383    -0.0198 C.ar    
  25 C25            1.4877     3.0793     0.8716 C.ar    
  26 C26            2.2059     1.6571    -0.9396 C.ar    
  27 C27            3.4188     2.3145    -0.9662 C.ar    
  28 C28            3.6672     3.3498    -0.0829 C.ar    
  29 C29            2.7045     3.7290     0.8353 C.ar    
  30 C30           -0.1447    -2.1928     4.2140 C.ar    
  31 C31            0.1235    -3.4526     4.7160 C.ar    
  32 C32            1.2759    -3.6745     5.4466 C.ar    
  33 C33            2.1602    -2.6368     5.6748 C.ar    
  34 C34            1.8924    -1.3773     5.1721 C.ar    
  35 C35            0.7421    -1.1564     4.4378 C.ar    
  36 C36           -2.4561    -1.3003     4.3146 C.3     
  37 H37           -3.0193     1.1500    -0.7100 H       
  38 H38           -4.9853     0.5384     0.5245 H       
  39 H39           -6.2353     0.6083     2.6449 H       
  40 H40           -5.0677     1.1451     4.7453 H       
  41 H41           -2.6499     1.6112     4.7255 H       
  42 H42           -1.3991     1.5367     2.6058 H       
  43 H43           -1.4166    -1.9683    -1.4078 H       
  44 H44           -3.0667    -1.3231    -1.2369 H       
  45 H45           -1.8417    -0.4050    -2.1450 H       
  46 H46           -1.7805    -2.9004     3.0402 H       
  47 H47           -2.3477     3.6573     0.8296 H       
  48 H48           -0.5820     3.8739     0.7680 H       
  49 H49           -3.7013     3.9415    -1.1400 H       
  50 H50           -3.9005     4.9252    -3.3885 H       
  51 H51           -1.8772     5.5825    -4.6284 H       
  52 H52            0.3452     5.2568    -3.6195 H       
  53 H53            0.5442     4.2774    -1.3691 H       
  54 H54            0.7368     3.3764     1.5887 H       
  55 H55            2.0132     0.8487    -1.6294 H       
  56 H56            4.1759     2.0199    -1.6779 H       
  57 H57            4.6182     3.8611    -0.1074 H       
  58 H58            2.9041     4.5380     1.5224 H       
  59 H59           -0.5673    -4.2633     4.5377 H       
  60 H60            1.4851    -4.6586     5.8393 H       
  61 H61            3.0601    -2.8101     6.2462 H       
  62 H62            2.5831    -0.5665     5.3507 H       
  63 H63            0.5347    -0.1732     4.0419 H       
  64 H64           -2.0766    -0.3508     4.6920 H       
  65 H65           -3.3648    -1.1253     3.7386 H       
  66 H66           -2.6786    -1.9614     5.1522 H       
@<TRIPOS>BOND
   1    1    2 2
   2    1   24 1
   3    1    5 1
   4    2    3 1
   5    3   12 1
   6    3   13 1
   7    3    4 1
   8    4    5 1
   9    4    6 1
  10    4   37 1
  11    5   17 1
  12    6    7 ar
  13    6   11 ar
  14    7    8 ar
  15    7   38 1
  16    8    9 ar
  17    8   39 1
  18    9   10 ar
  19    9   40 1
  20   10   11 ar
  21   10   41 1
  22   11   42 1
  23   12   14 1
  24   12   15 2
  25   13   43 1
  26   13   44 1
  27   13   45 1
  28   14   16 1
  29   16   30 1
  30   16   36 1
  31   16   46 1
  32   17   18 1
  33   17   47 1
  34   17   48 1
  35   18   19 ar
  36   18   23 ar
  37   19   20 ar
  38   19   49 1
  39   20   21 ar
  40   20   50 1
  41   21   22 ar
  42   21   51 1
  43   22   23 ar
  44   22   52 1
  45   23   53 1
  46   24   25 ar
  47   24   26 ar
  48   25   29 ar
  49   25   54 1
  50   26   27 ar
  51   26   55 1
  52   27   28 ar
  53   27   56 1
  54   28   29 ar
  55   28   57 1
  56   29   58 1
  57   30   31 ar
  58   30   35 ar
  59   31   32 ar
  60   31   59 1
  61   32   33 ar
  62   32   60 1
  63   33   34 ar
  64   33   61 1
  65   34   35 ar
  66   34   62 1
  67   35   63 1
  68   36   64 1
  69   36   65 1
  70   36   66 1

#	End of record

