#	Name: ASD02198059
#	Creating user name:	WinNT
#	Creation time:	15. 06. 2019 20:18

#	Modifying user name:	WinNT
#	Modification time:	15. 06. 2019 20:18

#	Program:	/corina/corina34_cracker 3.40 0067  02.08.2006

@<TRIPOS>MOLECULE
ASD02198059
  55   57    0    0    0
SMALL
NO_CHARGES


@<TRIPOS>ATOM
   1 C1            -0.0134     1.3783     0.0917 C.2     
   2 C2             0.0023     0.0013     0.0295 C.2     
   3 C3            -1.1891    -0.7932     0.0149 C.1     
   4 S4             1.5723     2.0047     0.0907 S.3     
   5 C5             2.2772     0.3983     0.0056 C.2     
   6 C6             1.2825    -0.5479    -0.0187 C.2     
   7 C7             3.6589     0.1215    -0.0318 C.2     
   8 C8             4.6310     1.2280    -0.1456 C.2     
   9 O9             4.0517    -1.0314     0.0298 O.2     
  10 N10            1.5268    -1.9115    -0.0844 N.pl3   
  11 N11           -1.1550     2.1443     0.1418 N.pl3   
  12 N12           -2.1341    -1.4235     0.0034 N.1     
  13 C13            4.3275     2.5927    -0.3461 C.2     
  14 N14            5.4509     3.2555    -0.3921 N.2     
  15 N15            6.5127     2.3592    -0.2257 N.pl3   
  16 C16            6.0042     1.1217    -0.0699 C.2     
  17 C17            7.8738     2.6933    -0.2175 C.ar    
  18 C18            8.3451     3.7114    -1.0355 C.ar    
  19 C19            6.7909    -0.1464     0.1395 C.3     
  20 C20            8.7527     2.0105     0.6127 C.ar    
  21 C21           10.0935     2.3420     0.6185 C.ar    
  22 C22           10.5608     3.3529    -0.2012 C.ar    
  23 C23            9.6870     4.0382    -1.0253 C.ar    
  24 C24           -1.0552     3.6045     0.2061 C.3     
  25 C25           -0.9168     4.1604    -1.1878 C.2     
  26 C26           -2.3162     4.1736     0.8593 C.3     
  27 C27           -2.3909     3.7085     2.3150 C.3     
  28 S28           -3.8860     4.3833     3.0894 S.3     
  29 O29           -0.9030     3.4135    -2.1374 O.2     
  30 O30           -0.8089     5.4853    -1.3743 O.3     
  31 C31           -0.6788     5.9497    -2.7438 C.3     
  32 C32           -3.7988     3.7328     4.7805 C.3     
  33 H33            2.4390    -2.2398    -0.1159 H       
  34 H34            0.7855    -2.5369    -0.0989 H       
  35 H35           -2.0261     1.7176     0.1346 H       
  36 H36            3.3381     3.0143    -0.4447 H       
  37 H37            7.6632     4.2470    -1.6794 H       
  38 H38            6.9419    -0.3083     1.2068 H       
  39 H39            6.2417    -0.9885    -0.2816 H       
  40 H40            7.7583    -0.0598    -0.3552 H       
  41 H41            8.3882     1.2214     1.2536 H       
  42 H42           10.7776     1.8113     1.2641 H       
  43 H43           11.6095     3.6107    -0.1944 H       
  44 H44           10.0550     4.8273    -1.6644 H       
  45 H45           -0.1825     3.8833     0.7967 H       
  46 H46           -2.2822     5.2626     0.8271 H       
  47 H47           -3.1954     3.8215     0.3198 H       
  48 H48           -2.4249     2.6195     2.3472 H       
  49 H49           -1.5117     4.0607     2.8545 H       
  50 H50            0.2164     5.5172    -3.1907 H       
  51 H51           -1.5546     5.6438    -3.3160 H       
  52 H52           -0.6004     7.0369    -2.7529 H       
  53 H53           -3.7975     2.6432     4.7510 H       
  54 H54           -2.8843     4.0844     5.2583 H       
  55 H55           -4.6620     4.0799     5.3483 H       
@<TRIPOS>BOND
   1    1    2 2
   2    1    4 1
   3    1   11 1
   4    2    3 1
   5    2    6 1
   6    3   12 3
   7    4    5 1
   8    5    6 2
   9    5    7 1
  10    6   10 1
  11    7    8 1
  12    7    9 2
  13    8   13 1
  14    8   16 2
  15   10   33 1
  16   10   34 1
  17   11   24 1
  18   11   35 1
  19   13   14 2
  20   13   36 1
  21   14   15 1
  22   15   16 1
  23   15   17 1
  24   16   19 1
  25   17   18 ar
  26   17   20 ar
  27   18   23 ar
  28   18   37 1
  29   19   38 1
  30   19   39 1
  31   19   40 1
  32   20   21 ar
  33   20   41 1
  34   21   22 ar
  35   21   42 1
  36   22   23 ar
  37   22   43 1
  38   23   44 1
  39   24   25 1
  40   24   26 1
  41   24   45 1
  42   25   29 2
  43   25   30 1
  44   26   27 1
  45   26   46 1
  46   26   47 1
  47   27   28 1
  48   27   48 1
  49   27   49 1
  50   28   32 1
  51   30   31 1
  52   31   50 1
  53   31   51 1
  54   31   52 1
  55   32   53 1
  56   32   54 1
  57   32   55 1

#	End of record

