#	Name: ASD03082390
#	Creating user name:	WinNT
#	Creation time:	15. 06. 2019 20:27

#	Modifying user name:	WinNT
#	Modification time:	15. 06. 2019 20:27

#	Program:	/corina/corina34_cracker 3.40 0067  02.08.2006

@<TRIPOS>MOLECULE
ASD03082390
  46   48    0    0    0
SMALL
NO_CHARGES


@<TRIPOS>ATOM
   1 C1            -3.8223    -0.8090     0.0311 C.ar    
   2 C2            -2.7321    -0.2808     0.7108 C.ar    
   3 C3            -2.8842     0.8682     1.4767 C.ar    
   4 C4            -4.1203     1.4830     1.5603 C.ar    
   5 C5            -5.2055     0.9534     0.8815 C.ar    
   6 C6            -5.0557    -0.1906     0.1180 C.ar    
   7 Cl7           -6.4184    -0.8509    -0.7310 Cl      
   8 N8            -1.4850    -0.9043     0.6248 N.pl3   
   9 C9            -1.4062    -2.2834     0.4043 C.2     
  10 C10           -0.2264    -3.0191     0.1988 C.2     
  11 N11           -2.4208    -3.1148     0.3592 N.2     
  12 N12           -1.9221    -4.4015     0.1183 N.pl3   
  13 C13           -0.5695    -4.3149     0.0238 C.2     
  14 C14           -2.6817    -5.5693     0.0004 C.ar    
  15 C15           -2.2710    -6.7535     0.6090 C.ar    
  16 C16           -3.8724    -5.5775    -0.7241 C.ar    
  17 C17           -4.5929    -6.7503    -0.8167 C.ar    
  18 N18           -4.1677    -7.8535    -0.2304 N.ar    
  19 C19           -3.0491    -7.8846     0.4686 C.ar    
  20 C20           -5.8821    -6.7719    -1.5968 C.3     
  21 H21           -2.7359    -8.8082     0.9327 H       
  22 C22            0.3784    -5.4584    -0.2309 C.3     
  23 C23            0.9858    -5.9224     1.0945 C.3     
  24 C24            1.8400    -7.1690     0.8554 C.3     
  25 C25            2.3456    -7.7055     2.1961 C.3     
  26 O26            1.8026    -4.8815     1.6344 O.3     
  27 F27           -4.2695     2.6005     2.3047 F       
  28 H28           -3.7054    -1.6996    -0.5685 H       
  29 H29           -2.0383     1.2807     2.0064 H       
  30 H30           -6.1701     1.4345     0.9482 H       
  31 H31           -0.6736    -0.3809     0.7180 H       
  32 H32            0.7769    -2.6197     0.1828 H       
  33 H33           -1.3563    -6.7859     1.1822 H       
  34 H34           -4.2262    -4.6781    -1.2061 H       
  35 H35           -5.6740    -7.0288    -2.6355 H       
  36 H36           -6.5546    -7.5141    -1.1667 H       
  37 H37           -6.3501    -5.7885    -1.5525 H       
  38 H38           -0.1640    -6.2844    -0.6909 H       
  39 H39            1.1738    -5.1290    -0.8995 H       
  40 H40            0.1868    -6.1587     1.7973 H       
  41 H41            1.2385    -7.9325     0.3621 H       
  42 H42            2.6898    -6.9113     0.2234 H       
  43 H43            2.9471    -6.9420     2.6894 H       
  44 H44            1.4958    -7.9632     2.8281 H       
  45 H45            2.9542    -8.5936     2.0258 H       
  46 H46            2.5357    -4.6194     1.0609 H       
@<TRIPOS>BOND
   1    1    2 ar
   2    1    6 ar
   3    1   28 1
   4    2    3 ar
   5    2    8 1
   6    3    4 ar
   7    3   29 1
   8    4    5 ar
   9    4   27 1
  10    5    6 ar
  11    5   30 1
  12    6    7 1
  13    8    9 1
  14    8   31 1
  15    9   10 1
  16    9   11 2
  17   10   13 2
  18   10   32 1
  19   11   12 1
  20   12   13 1
  21   12   14 1
  22   13   22 1
  23   14   15 ar
  24   14   16 ar
  25   15   19 ar
  26   15   33 1
  27   16   17 ar
  28   16   34 1
  29   17   18 ar
  30   17   20 1
  31   18   19 ar
  32   19   21 1
  33   20   35 1
  34   20   36 1
  35   20   37 1
  36   22   23 1
  37   22   38 1
  38   22   39 1
  39   23   24 1
  40   23   26 1
  41   23   40 1
  42   24   25 1
  43   24   41 1
  44   24   42 1
  45   25   43 1
  46   25   44 1
  47   25   45 1
  48   26   46 1

#	End of record

