#	Name: ASD01884580
#	Creating user name:	WinNT
#	Creation time:	15. 06. 2019 19:48

#	Modifying user name:	WinNT
#	Modification time:	15. 06. 2019 19:48

#	Program:	/corina/corina34_cracker 3.40 0067  02.08.2006

@<TRIPOS>MOLECULE
ASD01884580
  45   47    0    0    0
SMALL
NO_CHARGES


@<TRIPOS>ATOM
   1 C1             0.3305     2.1262    -1.7556 C.2     
   2 C2            -0.4120     1.3539    -0.9114 C.2     
   3 C3             0.1862     0.8312     0.2437 C.2     
   4 C4             1.4867     1.0954     0.5099 C.2     
   5 N5             2.2240     1.8648    -0.3313 N.am    
   6 C6             1.6781     2.3808    -1.4489 C.2     
   7 O7             2.3540     3.0704    -2.1957 O.2     
   8 C8             3.6294     2.1366    -0.0197 C.3     
   9 C9            -0.6182    -0.0239     1.1886 C.3     
  10 C10           -1.3677     0.8602     2.1518 C.ar    
  11 C11           -2.6392     1.3024     1.8363 C.ar    
  12 C12           -3.3283     2.1129     2.7175 C.ar    
  13 C13           -2.7436     2.4832     3.9198 C.ar    
  14 C14           -1.4677     2.0382     4.2340 C.ar    
  15 C15           -0.7849     1.2232     3.3519 C.ar    
  16 O16           -3.4193     3.2808     4.7882 O.3     
  17 C17           -2.7554     3.6218     6.0069 C.3     
  18 C18            3.7130     2.9966     1.2150 C.ar    
  19 C19            4.3615     0.8161     0.2280 C.3     
  20 C20            4.3236     4.2353     1.1545 C.ar    
  21 C21            4.4003     5.0241     2.2871 C.ar    
  22 C22            3.8659     4.5745     3.4800 C.ar    
  23 C23            3.2544     3.3362     3.5403 C.ar    
  24 C24            3.1739     2.5492     2.4067 C.ar    
  25 H25           -0.1114     2.5342    -2.6527 H       
  26 H26           -1.4492     1.1476    -1.1302 H       
  27 H27            1.9427     0.6902     1.4012 H       
  28 H28            4.0932     2.6575    -0.8574 H       
  29 H29           -1.3276    -0.6252     0.6200 H       
  30 H30            0.0514    -0.6806     1.7440 H       
  31 H31           -3.0938     1.0142     0.9000 H       
  32 H32           -4.3213     2.4584     2.4705 H       
  33 H33           -1.0103     2.3250     5.1694 H       
  34 H34            0.2083     0.8765     3.5960 H       
  35 H35           -2.5260     2.7124     6.5623 H       
  36 H36           -1.8306     4.1525     5.7807 H       
  37 H37           -3.4034     4.2605     6.6071 H       
  38 H38            3.8978     0.2952     1.0657 H       
  39 H39            4.3011     0.1941    -0.6650 H       
  40 H40            5.4072     1.0184     0.4599 H       
  41 H41            4.7411     4.5866     0.2225 H       
  42 H42            4.8780     5.9916     2.2400 H       
  43 H43            3.9264     5.1905     4.3650 H       
  44 H44            2.8372     2.9847     4.4724 H       
  45 H45            2.6962     1.5817     2.4538 H       
@<TRIPOS>BOND
   1    1    2 2
   2    1    6 1
   3    1   25 1
   4    2    3 1
   5    2   26 1
   6    3    4 2
   7    3    9 1
   8    4    5 1
   9    4   27 1
  10    5    6 am
  11    5    8 1
  12    6    7 2
  13    8   18 1
  14    8   19 1
  15    8   28 1
  16    9   10 1
  17    9   29 1
  18    9   30 1
  19   10   11 ar
  20   10   15 ar
  21   11   12 ar
  22   11   31 1
  23   12   13 ar
  24   12   32 1
  25   13   14 ar
  26   13   16 1
  27   14   15 ar
  28   14   33 1
  29   15   34 1
  30   16   17 1
  31   17   35 1
  32   17   36 1
  33   17   37 1
  34   18   20 ar
  35   18   24 ar
  36   19   38 1
  37   19   39 1
  38   19   40 1
  39   20   21 ar
  40   20   41 1
  41   21   22 ar
  42   21   42 1
  43   22   23 ar
  44   22   43 1
  45   23   24 ar
  46   23   44 1
  47   24   45 1

#	End of record

