#	Name: ASD03740006
#	Creating user name:	WinNT
#	Creation time:	15. 06. 2019 20:46

#	Modifying user name:	WinNT
#	Modification time:	15. 06. 2019 20:46

#	Program:	/corina/corina34_cracker 3.40 0067  02.08.2006

@<TRIPOS>MOLECULE
ASD03740006
  41   43    0    0    0
SMALL
NO_CHARGES


@<TRIPOS>ATOM
   1 C1            -0.0167     1.3784     0.0096 C.ar    
   2 C2             0.0021    -0.0041     0.0020 C.ar    
   3 C3            -1.1841    -0.7122     0.0095 C.ar    
   4 C4            -2.3948    -0.0349     0.0247 C.ar    
   5 C5            -2.4109     1.3523     0.0323 C.ar    
   6 C6            -1.2219     2.0557     0.0305 C.ar    
   7 S7             1.4980     2.2786    -0.0000 S.o2    
   8 O8            -3.5630    -0.7292     0.0317 O.3     
   9 C9            -4.7711     0.0339     0.0474 C.3     
  10 N10            1.9043     2.5376    -1.5844 N.am    
  11 O11            1.2097     3.5550     0.5541 O.2     
  12 O12            2.4865     1.4064     0.5303 O.2     
  13 C13            1.5393     3.6065    -2.3385 C.2     
  14 C14            2.0769     3.4377    -3.5776 C.2     
  15 C15            2.7891     2.2304    -3.5751 C.2     
  16 N16            2.6900     1.6958    -2.3818 N.2     
  17 N17            0.7574     4.6794    -1.9204 N.pl3   
  18 O18            3.4704     1.7057    -4.6284 O.3     
  19 C19            4.0948     0.5290    -4.4279 C.2     
  20 C20            4.8543    -0.1007    -5.5272 C.ar    
  21 O21            4.0332    -0.0142    -3.3431 O.2     
  22 C22            5.5027    -1.3204    -5.3229 C.ar    
  23 C23            6.2099    -1.9032    -6.3540 C.ar    
  24 C24            6.2779    -1.2817    -7.5884 C.ar    
  25 C25            5.6382    -0.0727    -7.7976 C.ar    
  26 C26            4.9224     0.5181    -6.7771 C.ar    
  27 H27            0.9448    -0.5308    -0.0102 H       
  28 H28           -1.1689    -1.7920     0.0032 H       
  29 H29           -3.3521     1.8818     0.0442 H       
  30 H30           -1.2339     3.1356     0.0364 H       
  31 H31           -4.8122     0.6674    -0.8387 H       
  32 H32           -5.6271    -0.6410     0.0515 H       
  33 H33           -4.7955     0.6572     0.9412 H       
  34 H34            1.9731     4.1135    -4.4136 H       
  35 H35            0.4190     4.7080    -1.0118 H       
  36 H36            0.5508     5.3986    -2.5377 H       
  37 H37            5.4509    -1.8062    -4.3597 H       
  38 H38            6.7118    -2.8465    -6.1973 H       
  39 H39            6.8333    -1.7421    -8.3921 H       
  40 H40            5.6957     0.4072    -8.7634 H       
  41 H41            4.4235     1.4617    -6.9417 H       
@<TRIPOS>BOND
   1    1    2 ar
   2    1    7 1
   3    1    6 ar
   4    2    3 ar
   5    2   27 1
   6    3    4 ar
   7    3   28 1
   8    4    5 ar
   9    4    8 1
  10    5    6 ar
  11    5   29 1
  12    6   30 1
  13    7   10 am
  14    7   11 2
  15    7   12 2
  16    8    9 1
  17    9   31 1
  18    9   32 1
  19    9   33 1
  20   10   13 1
  21   10   16 1
  22   13   14 2
  23   13   17 1
  24   14   15 1
  25   14   34 1
  26   15   16 2
  27   15   18 1
  28   17   35 1
  29   17   36 1
  30   18   19 1
  31   19   20 1
  32   19   21 2
  33   20   22 ar
  34   20   26 ar
  35   22   23 ar
  36   22   37 1
  37   23   24 ar
  38   23   38 1
  39   24   25 ar
  40   24   39 1
  41   25   26 ar
  42   25   40 1
  43   26   41 1

#	End of record

