#	Name: ASD01200256
#	Creating user name:	WinNT
#	Creation time:	15. 06. 2019 19:08

#	Modifying user name:	WinNT
#	Modification time:	15. 06. 2019 19:08

#	Program:	/corina/corina34_cracker 3.40 0067  02.08.2006

@<TRIPOS>MOLECULE
ASD01200256
  39   40    0    0    0
SMALL
NO_CHARGES


@<TRIPOS>ATOM
   1 C1            -0.0184     1.5028     0.0103 C.2     
   2 C2             0.0021    -0.0041     0.0020 C.3     
   3 C3             1.4513    -0.4944    -0.0145 C.3     
   4 O4             1.0232     2.1232     0.0037 O.2     
   5 N5            -1.1946     2.1607     0.0195 N.am    
   6 C6            -0.6897    -0.5226     1.2364 C.ar    
   7 C7            -1.8040    -1.3319     1.1154 C.ar    
   8 C8            -2.4388    -1.8084     2.2479 C.ar    
   9 C9            -1.9577    -1.4743     3.5028 C.ar    
  10 C10           -0.8428    -0.6646     3.6220 C.ar    
  11 C11           -0.2063    -0.1935     2.4888 C.ar    
  12 Cl12          -2.7538    -2.0711     4.9254 Cl      
  13 Cl13          -3.8384    -2.8243     2.0965 Cl      
  14 C14            2.1173    -0.0733    -1.3260 C.3     
  15 C15            3.6090    -0.4500    -1.3043 C.3     
  16 C16            3.8330    -1.4305    -2.4740 C.3     
  17 C17            2.6779    -1.1185    -3.4577 C.3     
  18 C18            1.4868    -0.8381    -2.5081 C.3     
  19 C19           -1.2129     3.5083     0.0269 C.2     
  20 N20           -2.3891     4.1663     0.0360 N.am    
  21 O21           -0.1687     4.1303     0.0253 O.2     
  22 H22           -0.5153    -0.3696    -0.8850 H       
  23 H23            1.9924    -0.0570     0.8246 H       
  24 H24            1.4682    -1.5810     0.0691 H       
  25 H25           -2.0280     1.6644     0.0207 H       
  26 H26           -2.1789    -1.5918     0.1364 H       
  27 H27           -0.4671    -0.4037     4.6003 H       
  28 H28            0.6667     0.4355     2.5822 H       
  29 H29            2.0055     1.0009    -1.4731 H       
  30 H30            4.2212     0.4413    -1.4418 H       
  31 H31            3.8585    -0.9328    -0.3594 H       
  32 H32            4.7974    -1.2459    -2.9473 H       
  33 H33            3.7692    -2.4613    -2.1254 H       
  34 H34            2.9088    -0.2386    -4.0580 H       
  35 H35            2.4700    -1.9784    -4.0945 H       
  36 H36            1.0441    -1.7731    -2.1649 H       
  37 H37            0.7389    -0.2210    -3.0062 H       
  38 H38           -3.2225     3.6699     0.0373 H       
  39 H39           -2.4022     5.1362     0.0414 H       
@<TRIPOS>BOND
   1    1    2 1
   2    1    4 2
   3    1    5 am
   4    2    3 1
   5    2    6 1
   6    2   22 1
   7    3   14 1
   8    3   23 1
   9    3   24 1
  10    5   19 am
  11    5   25 1
  12    6    7 ar
  13    6   11 ar
  14    7    8 ar
  15    7   26 1
  16    8    9 ar
  17    8   13 1
  18    9   10 ar
  19    9   12 1
  20   10   11 ar
  21   10   27 1
  22   11   28 1
  23   14   15 1
  24   14   18 1
  25   14   29 1
  26   15   16 1
  27   15   30 1
  28   15   31 1
  29   16   17 1
  30   16   32 1
  31   16   33 1
  32   17   18 1
  33   17   34 1
  34   17   35 1
  35   18   36 1
  36   18   37 1
  37   19   20 am
  38   19   21 2
  39   20   38 1
  40   20   39 1

#	End of record

