#	Name: ASD07300579
#	Creating user name:	WinNT
#	Creation time:	15. 06. 2019 21:10

#	Modifying user name:	WinNT
#	Modification time:	15. 06. 2019 21:10

#	Program:	/corina/corina34_cracker 3.40 0067  02.08.2006

@<TRIPOS>MOLECULE
ASD07300579
  55   58    0    0    0
SMALL
NO_CHARGES


@<TRIPOS>ATOM
   1 C1            -0.0173     1.4132    -0.0101 C.2     
   2 C2             0.0021    -0.0041     0.0020 C.2     
   3 N3             1.1773     2.0868    -0.0173 N.pl3   
   4 N4             1.1570    -0.6390     0.0061 N.2     
   5 C5             2.3155     0.0276    -0.0010 C.2     
   6 C6             2.3478     1.3755    -0.0122 C.2     
   7 N7            -0.9989     2.3008    -0.0112 N.2     
   8 C8            -0.4887     3.5283    -0.0252 C.2     
   9 C9             0.8861     3.4239    -0.0283 C.2     
  10 N10           -1.1861    -0.7177     0.0100 N.pl3   
  11 C11           -1.1896    -2.1845    -0.1073 C.3     
  12 C12           -2.0522    -2.7579     1.0227 C.3     
  13 O13           -3.3301    -2.1170     1.0109 O.3     
  14 C14           -3.2811    -0.7092     1.2547 C.3     
  15 C15           -2.4810    -0.0314     0.1422 C.3     
  16 C16           -1.2771     4.8126    -0.0318 C.3     
  17 C17           -2.1666     4.8585    -1.2759 C.3     
  18 C18           -2.1505     4.8813     1.2225 C.3     
  19 C19            1.6795     5.6253    -0.8979 C.ar    
  20 C20            1.8561     4.5387    -0.0390 C.ar    
  21 C21            2.9674     4.5236     0.8122 C.ar    
  22 C22            3.8454     5.5921     0.7635 C.ar    
  23 C23            3.5996     6.6310    -0.1159 C.ar    
  24 N24            2.5437     6.6187    -0.9069 N.ar    
  25 C25            4.5534     7.7964    -0.1712 C.3     
  26 C26            5.0415     7.9883    -1.6086 C.3     
  27 O27            5.9459     9.0934    -1.6610 O.3     
  28 C28            6.4634     9.3595    -2.9662 C.3     
  29 H29            3.2438    -0.5242     0.0030 H       
  30 H30            3.2955     1.8936    -0.0174 H       
  31 H31           -1.6072    -2.4747    -1.0714 H       
  32 H32           -0.1709    -2.5622    -0.0194 H       
  33 H33           -2.1812    -3.8300     0.8742 H       
  34 H34           -1.5637    -2.5785     1.9805 H       
  35 H35           -4.2941    -0.3074     1.2730 H       
  36 H36           -2.7971    -0.5223     2.2133 H       
  37 H37           -2.3172     1.0161     0.3953 H       
  38 H38           -3.0310    -0.1011    -0.7963 H       
  39 H39           -0.5914     5.6598    -0.0439 H       
  40 H40           -2.8523     4.0113    -1.2638 H       
  41 H41           -2.7368     5.7875    -1.2806 H       
  42 H42           -1.5443     4.8096    -2.1694 H       
  43 H43           -1.5169     4.8485     2.1087 H       
  44 H44           -2.7208     5.8102     1.2177 H       
  45 H45           -2.8362     4.0341     1.2346 H       
  46 H46            0.8294     5.6491    -1.5635 H       
  47 H47            3.1350     3.6993     1.4897 H       
  48 H48            4.7134     5.6147     1.4057 H       
  49 H49            4.0431     8.6998     0.1628 H       
  50 H50            5.4060     7.5993     0.4787 H       
  51 H51            5.5518     7.0849    -1.9426 H       
  52 H52            4.1889     8.1853    -2.2585 H       
  53 H53            5.6403     9.5851    -3.6443 H       
  54 H54            7.1412    10.2119    -2.9214 H       
  55 H55            7.0032     8.4846    -3.3284 H       
@<TRIPOS>BOND
   1    1    2 1
   2    1    3 1
   3    1    7 2
   4    2    4 2
   5    2   10 1
   6    3    6 1
   7    3    9 1
   8    4    5 1
   9    5    6 2
  10    5   29 1
  11    6   30 1
  12    7    8 1
  13    8    9 2
  14    8   16 1
  15    9   20 1
  16   10   11 1
  17   10   15 1
  18   11   12 1
  19   11   31 1
  20   11   32 1
  21   12   13 1
  22   12   33 1
  23   12   34 1
  24   13   14 1
  25   14   15 1
  26   14   35 1
  27   14   36 1
  28   15   37 1
  29   15   38 1
  30   16   17 1
  31   16   18 1
  32   16   39 1
  33   17   40 1
  34   17   41 1
  35   17   42 1
  36   18   43 1
  37   18   44 1
  38   18   45 1
  39   19   20 ar
  40   19   24 ar
  41   19   46 1
  42   20   21 ar
  43   21   22 ar
  44   21   47 1
  45   22   23 ar
  46   22   48 1
  47   23   24 ar
  48   23   25 1
  49   25   26 1
  50   25   49 1
  51   25   50 1
  52   26   27 1
  53   26   51 1
  54   26   52 1
  55   27   28 1
  56   28   53 1
  57   28   54 1
  58   28   55 1

#	End of record

