#	Name: ASD01940705
#	Creating user name:	WinNT
#	Creation time:	15. 06. 2019 20:13

#	Modifying user name:	WinNT
#	Modification time:	15. 06. 2019 20:13

#	Program:	/corina/corina34_cracker 3.40 0067  02.08.2006

@<TRIPOS>MOLECULE
ASD01940705
  55   57    0    0    0
SMALL
NO_CHARGES


@<TRIPOS>ATOM
   1 C1             0.2813     0.9266     1.0720 C.ar    
   2 C2            -0.1279     0.1584    -0.0026 C.ar    
   3 C3             0.7184    -0.0374    -1.0806 C.ar    
   4 C4             1.9802     0.5355    -1.0873 C.ar    
   5 C5             2.3965     1.3078    -0.0111 C.ar    
   6 C6             1.5424     1.5037     1.0729 C.ar    
   7 N7             1.9571     2.2826     2.1616 N.am    
   8 S8             1.4844     1.8787     3.6964 S.o2    
   9 C9             2.1618     0.2161     3.9559 C.3     
  10 O10            2.1469     2.8223     4.5269 O.2     
  11 O11            0.0658     1.8337     3.6258 O.2     
  12 F12            0.3135    -0.7888    -2.1278 F       
  13 F13            2.8048     0.3423    -2.1399 F       
  14 N14            3.6723     1.8883    -0.0144 N.pl3   
  15 C15            4.7896     1.1228     0.3326 C.ar    
  16 C16            6.0462     1.7160     0.4058 C.ar    
  17 C17            4.6472    -0.2299     0.6107 C.ar    
  18 C18            5.7534    -0.9838     0.9534 C.ar    
  19 C19            7.0015    -0.3934     1.0203 C.ar    
  20 C20            7.1480     0.9552     0.7493 C.ar    
  21 F21            6.1891     3.0331     0.1411 F       
  22 C22            1.7984    -0.3015     5.3630 C.3     
  23 C23            3.0214    -1.0836     5.8731 C.3     
  24 C24            4.0854    -1.0141     4.7582 C.3     
  25 C25            3.7102     0.2552     3.9538 C.3     
  26 C26            8.2048    -1.2198     1.3950 C.3     
  27 C27            8.8329    -1.8087     0.1302 C.3     
  28 C28           10.0545    -2.6477     0.5107 C.3     
  29 O29            1.5230     0.7982     6.2330 O.3     
  30 C30            0.5774     0.5021     7.2626 C.3     
  31 F31            1.0647    -0.5410     8.0574 F       
  32 F32            0.3791     1.6382     8.0545 F       
  33 F33           -0.6374     0.1191     6.6840 F       
  34 H34           -0.3833     1.0808     1.9091 H       
  35 H35           -1.1102    -0.2902    -0.0007 H       
  36 H36            2.5210     3.0582     2.0161 H       
  37 H37            1.7945    -0.4682     3.1911 H       
  38 H38            3.7801     2.8211    -0.2576 H       
  39 H39            3.6727    -0.6925     0.5596 H       
  40 H40            5.6425    -2.0361     1.1697 H       
  41 H41            8.1246     1.4133     0.8024 H       
  42 H42            0.9314    -0.9596     5.3064 H       
  43 H43            3.4049    -0.6244     6.7843 H       
  44 H44            2.7479    -2.1213     6.0641 H       
  45 H45            5.0820    -0.9129     5.1878 H       
  46 H46            4.0307    -1.8983     4.1231 H       
  47 H47            4.0968     0.1960     2.9364 H       
  48 H48            4.0747     1.1519     4.4551 H       
  49 H49            8.9344    -0.5895     1.9033 H       
  50 H50            7.8980    -2.0282     2.0586 H       
  51 H51            8.1032    -2.4390    -0.3781 H       
  52 H52            9.1397    -1.0003    -0.5334 H       
  53 H53           10.7841    -2.0174     1.0190 H       
  54 H54            9.7476    -3.4562     1.1743 H       
  55 H55           10.5019    -3.0673    -0.3904 H       
@<TRIPOS>BOND
   1    1    2 ar
   2    1    6 ar
   3    1   34 1
   4    2    3 ar
   5    2   35 1
   6    3    4 ar
   7    3   12 1
   8    4    5 ar
   9    4   13 1
  10    5    6 ar
  11    5   14 1
  12    6    7 1
  13    7    8 am
  14    7   36 1
  15    8   10 2
  16    8   11 2
  17    8    9 1
  18    9   22 1
  19    9   25 1
  20    9   37 1
  21   14   15 1
  22   14   38 1
  23   15   16 ar
  24   15   17 ar
  25   16   21 1
  26   16   20 ar
  27   17   18 ar
  28   17   39 1
  29   18   19 ar
  30   18   40 1
  31   19   20 ar
  32   19   26 1
  33   20   41 1
  34   22   23 1
  35   22   29 1
  36   22   42 1
  37   23   24 1
  38   23   43 1
  39   23   44 1
  40   24   25 1
  41   24   45 1
  42   24   46 1
  43   25   47 1
  44   25   48 1
  45   26   27 1
  46   26   49 1
  47   26   50 1
  48   27   28 1
  49   27   51 1
  50   27   52 1
  51   28   53 1
  52   28   54 1
  53   28   55 1
  54   29   30 1
  55   30   31 1
  56   30   32 1
  57   30   33 1

#	End of record

