#	Name: ASD01901318
#	Creating user name:	WinNT
#	Creation time:	15. 06. 2019 19:53

#	Modifying user name:	WinNT
#	Modification time:	15. 06. 2019 19:53

#	Program:	/corina/corina34_cracker 3.40 0067  02.08.2006

@<TRIPOS>MOLECULE
ASD01901318
  38   41    0    0    0
SMALL
NO_CHARGES


@<TRIPOS>ATOM
   1 C1            -0.0166     1.3765     0.0096 C.ar    
   2 C2             0.0021    -0.0041     0.0020 C.ar    
   3 C3             1.2114    -0.6825    -0.0127 C.ar    
   4 C4             2.4042     0.0209    -0.0199 C.ar    
   5 C5             2.3942     1.4011    -0.0124 C.ar    
   6 C6             1.1819     2.0873     0.0020 C.ar    
   7 C7             1.1669     3.5714     0.0101 C.2     
   8 N8             0.6186     5.5983    -1.0696 N.2     
   9 C9             0.6296     4.2878    -1.0814 C.2     
  10 C10            1.6679     4.2637     1.0768 C.2     
  11 C11            1.1135     6.2860    -0.0295 C.2     
  12 N12            1.2083     7.5874     0.2034 N.2     
  13 N13            1.6387     5.6266     1.0520 N.pl3   
  14 C14            2.0530     6.5788     1.9441 C.2     
  15 C15            1.7764     7.7816     1.3973 C.2     
  16 C16            2.0616     9.1204     2.0277 C.3     
  17 O17            2.6743     8.9251     3.3038 O.3     
  18 C18            2.9983    10.0402     4.0098 C.ar    
  19 C19            2.7268    11.2965     3.4876 C.ar    
  20 C20            3.5960     9.9242     5.2564 C.ar    
  21 C21            3.9244    11.0592     5.9720 C.ar    
  22 C22            3.6576    12.3102     5.4470 C.ar    
  23 C23            3.0572    12.4285     4.2071 C.ar    
  24 Cl24          -1.4899    -0.8915     0.0115 Cl      
  25 F25            1.2259    -2.0334    -0.0197 F       
  26 H26           -0.9587     1.9046     0.0169 H       
  27 H27            3.3439    -0.5113    -0.0310 H       
  28 H28            3.3252     1.9486    -0.0172 H       
  29 H29            0.2265     3.7540    -1.9293 H       
  30 H30            2.0801     3.7393     1.9262 H       
  31 H31            2.5137     6.4011     2.9046 H       
  32 H32            2.7338     9.6888     1.3851 H       
  33 H33            1.1282     9.6692     2.1530 H       
  34 H34            2.2579    11.3894     2.5191 H       
  35 H35            3.8039     8.9472     5.6672 H       
  36 H36            4.3897    10.9694     6.9425 H       
  37 H37            3.9148    13.1964     6.0082 H       
  38 H38            2.8461    13.4067     3.8010 H       
@<TRIPOS>BOND
   1    1    2 ar
   2    1    6 ar
   3    1   26 1
   4    2    3 ar
   5    2   24 1
   6    3    4 ar
   7    3   25 1
   8    4    5 ar
   9    4   27 1
  10    5    6 ar
  11    5   28 1
  12    6    7 1
  13    7   10 2
  14    7    9 1
  15    8    9 2
  16    8   11 1
  17    9   29 1
  18   10   13 1
  19   10   30 1
  20   11   13 1
  21   11   12 2
  22   12   15 1
  23   13   14 1
  24   14   15 2
  25   14   31 1
  26   15   16 1
  27   16   17 1
  28   16   32 1
  29   16   33 1
  30   17   18 1
  31   18   20 ar
  32   18   19 ar
  33   19   23 ar
  34   19   34 1
  35   20   21 ar
  36   20   35 1
  37   21   22 ar
  38   21   36 1
  39   22   23 ar
  40   22   37 1
  41   23   38 1

#	End of record

