#	Name: ASD00311371
#	Creating user name:	WinNT
#	Creation time:	15. 06. 2019 18:34

#	Modifying user name:	WinNT
#	Modification time:	15. 06. 2019 18:34

#	Program:	/corina/corina34_cracker 3.40 0067  02.08.2006

@<TRIPOS>MOLECULE
ASD00311371
  35   38    0    0    0
SMALL
NO_CHARGES


@<TRIPOS>ATOM
   1 C1            -0.0167     1.3778     0.0096 C.2     
   2 C2             0.0021    -0.0041     0.0020 C.2     
   3 C3             1.2589    -0.6766    -0.0140 C.2     
   4 C4             2.4315     0.0673    -0.0217 C.2     
   5 C5             2.3574     1.4753    -0.0134 C.2     
   6 N6             1.1648     2.0904     0.0022 N.am    
   7 C7            -1.3431    -0.5750     0.0123 C.2     
   8 C8            -2.3223     0.3256     0.0268 C.2     
   9 S9            -1.6794     1.9560     0.0358 S.3     
  10 O10            3.3822     2.1374    -0.0196 O.2     
  11 C11           -0.9647    -2.8603    -0.9237 C.ar    
  12 C12           -1.5955    -2.0355     0.0070 C.ar    
  13 C13           -2.4696    -2.6089     0.9353 C.ar    
  14 C14           -2.6710    -3.9777     0.8887 C.ar    
  15 C15           -2.0074    -4.7272    -0.0654 C.ar    
  16 N16           -1.1882    -4.1583    -0.9288 N.ar    
  17 C17            3.7477    -0.6119    -0.0379 C.ar    
  18 C18            4.5931    -0.4744    -1.1387 C.ar    
  19 C19            5.8179    -1.1096    -1.1479 C.ar    
  20 C20            6.2081    -1.8816    -0.0682 C.ar    
  21 C21            5.3740    -2.0218     1.0266 C.ar    
  22 C22            4.1491    -1.3868     1.0501 C.ar    
  23 O23            1.3089    -2.0291    -0.0214 O.3     
  24 H24            1.1326     3.0599     0.0073 H       
  25 H25           -3.3749     0.0838     0.0360 H       
  26 H26           -0.2904    -2.4305    -1.6496 H       
  27 H27           -2.9746    -1.9996     1.6702 H       
  28 H28           -3.3389    -4.4553     1.5903 H       
  29 H29           -2.1621    -5.7954    -0.1041 H       
  30 H30            4.2894     0.1277    -1.9823 H       
  31 H31            6.4732    -1.0043    -1.9999 H       
  32 H32            7.1676    -2.3772    -0.0802 H       
  33 H33            5.6840    -2.6258     1.8665 H       
  34 H34            3.5007    -1.4933     1.9072 H       
  35 H35            2.2062    -2.3895    -0.0322 H       
@<TRIPOS>BOND
   1    1    2 2
   2    1    6 1
   3    1    9 1
   4    2    3 1
   5    2    7 1
   6    3    4 2
   7    3   23 1
   8    4    5 1
   9    4   17 1
  10    5    6 am
  11    5   10 2
  12    6   24 1
  13    7    8 2
  14    7   12 1
  15    8    9 1
  16    8   25 1
  17   11   12 ar
  18   11   16 ar
  19   11   26 1
  20   12   13 ar
  21   13   14 ar
  22   13   27 1
  23   14   15 ar
  24   14   28 1
  25   15   16 ar
  26   15   29 1
  27   17   18 ar
  28   17   22 ar
  29   18   19 ar
  30   18   30 1
  31   19   20 ar
  32   19   31 1
  33   20   21 ar
  34   20   32 1
  35   21   22 ar
  36   21   33 1
  37   22   34 1
  38   23   35 1

#	End of record

