#	Name: ASD03080092
#	Creating user name:	WinNT
#	Creation time:	15. 06. 2019 20:26

#	Modifying user name:	WinNT
#	Modification time:	15. 06. 2019 20:26

#	Program:	/corina/corina34_cracker 3.40 0067  02.08.2006

@<TRIPOS>MOLECULE
ASD03080092
  44   46    0    0    0
SMALL
NO_CHARGES


@<TRIPOS>ATOM
   1 C1            -0.0189     1.5418     0.0105 C.3     
   2 C2             0.0021    -0.0041     0.0020 C.3     
   3 C3             0.0314    -0.4658    -1.4638 C.3     
   4 C4             2.4435     0.2086    -1.4831 C.3     
   5 C5             1.4670     1.9573    -0.0014 C.3     
   6 C6             2.2507     0.6247    -0.0160 C.3     
   7 N7             1.3173    -0.3550     0.6010 N.3     
   8 C8             1.2871    -0.2053     2.0620 C.3     
   9 C9             1.1030     0.3311    -2.2133 C.3     
  10 O10            1.2380    -0.1906    -3.5616 O.3     
  11 C11            1.6114     0.6764    -4.5159 C.2     
  12 O12            1.8185     1.8329    -4.2339 O.2     
  13 C13            1.7723     0.2074    -5.9390 C.3     
  14 C14            0.4405    -0.3494    -6.4461 C.3     
  15 C15            2.1947     1.3661    -6.8051 C.ar    
  16 O16            0.6208    -0.8999    -7.7524 O.3     
  17 C17            3.3920     1.3136    -7.4940 C.ar    
  18 C18            1.3822     2.4790    -6.9150 C.ar    
  19 C19            1.7697     3.5419    -7.7095 C.ar    
  20 C20            2.9699     3.4919    -8.3936 C.ar    
  21 C21            3.7795     2.3764    -8.2884 C.ar    
  22 H22           -0.5254     1.9192    -0.8778 H       
  23 H23           -0.5083     1.9096     0.9123 H       
  24 H24           -0.8380    -0.4307     0.5501 H       
  25 H25            0.2696    -1.5285    -1.5071 H       
  26 H26           -0.9419    -0.2892    -1.9217 H       
  27 H27            3.1771     0.8624    -1.9546 H       
  28 H28            2.7902    -0.8238    -1.5272 H       
  29 H29            1.6910     2.5389    -0.8957 H       
  30 H30            1.7081     2.5294     0.8945 H       
  31 H31            3.1982     0.6979     0.5179 H       
  32 H32            0.5260    -0.8646     2.4792 H       
  33 H33            2.2612    -0.4682     2.4744 H       
  34 H34            1.0517     0.8281     2.3166 H       
  35 H35            0.8094     1.3798    -2.2588 H       
  36 H36            2.5319    -0.5732    -5.9806 H       
  37 H37            0.0908    -1.1284    -5.7686 H       
  38 H38           -0.2962     0.4528    -6.4884 H       
  39 H39           -0.1846    -1.2721    -8.1370 H       
  40 H40            4.0248     0.4423    -7.4113 H       
  41 H41            0.4446     2.5181    -6.3805 H       
  42 H42            1.1346     4.4111    -7.7959 H       
  43 H43            3.2724     4.3221    -9.0146 H       
  44 H44            4.7171     2.3373    -8.8229 H       
@<TRIPOS>BOND
   1    1    2 1
   2    1    5 1
   3    1   22 1
   4    1   23 1
   5    2    3 1
   6    2    7 1
   7    2   24 1
   8    3    9 1
   9    3   25 1
  10    3   26 1
  11    4    6 1
  12    4    9 1
  13    4   27 1
  14    4   28 1
  15    5    6 1
  16    5   29 1
  17    5   30 1
  18    6    7 1
  19    6   31 1
  20    7    8 1
  21    8   32 1
  22    8   33 1
  23    8   34 1
  24    9   10 1
  25    9   35 1
  26   10   11 1
  27   11   12 2
  28   11   13 1
  29   13   14 1
  30   13   15 1
  31   13   36 1
  32   14   16 1
  33   14   37 1
  34   14   38 1
  35   15   17 ar
  36   15   18 ar
  37   16   39 1
  38   17   21 ar
  39   17   40 1
  40   18   19 ar
  41   18   41 1
  42   19   20 ar
  43   19   42 1
  44   20   21 ar
  45   20   43 1
  46   21   44 1

#	End of record

