#	Name: ASD03090519
#	Creating user name:	WinNT
#	Creation time:	15. 06. 2019 20:28

#	Modifying user name:	WinNT
#	Modification time:	15. 06. 2019 20:28

#	Program:	/corina/corina34_cracker 3.40 0067  02.08.2006

@<TRIPOS>MOLECULE
ASD03090519
  33   35    0    0    0
SMALL
NO_CHARGES


@<TRIPOS>ATOM
   1 C1            -0.0180     1.4736     0.0101 C.2     
   2 C2             0.0021    -0.0041     0.0020 C.ar    
   3 C3             1.2189    -0.6884    -0.0133 C.ar    
   4 C4             1.2313    -2.0673    -0.0203 C.ar    
   5 C5             0.0396    -2.7733    -0.0123 C.ar    
   6 C6            -1.1707    -2.1000     0.0029 C.ar    
   7 C7            -1.1957    -0.7213     0.0154 C.ar    
   8 O8             1.0264     2.0957     0.0035 O.2     
   9 N9            -1.1942     2.1316     0.0193 N.am    
  10 C10           -1.2141     3.5964     0.0274 C.3     
  11 N11           -6.5411     5.4004     0.3357 N.pl3   
  12 C12           -6.6944     5.4469     1.6946 C.2     
  13 C13           -5.5590     5.0591     2.2967 C.2     
  14 C14           -4.6003     4.7380     1.2367 C.ar    
  15 C15           -3.2778     4.2901     1.2273 C.ar    
  16 C16           -2.6415     4.0794     0.0368 C.ar    
  17 C17           -3.2994     4.3071    -1.1644 C.ar    
  18 C18           -4.6038     4.7494    -1.1782 C.ar    
  19 C19           -5.2711     4.9707     0.0224 C.ar    
  20 Cl20           0.0632    -4.5091    -0.0218 Cl      
  21 H21            2.1487    -0.1389    -0.0199 H       
  22 H22            2.1719    -2.5977    -0.0325 H       
  23 H23           -2.0966    -2.6558     0.0088 H       
  24 H24           -2.1400    -0.1973     0.0318 H       
  25 H25           -2.0276     1.6352     0.0206 H       
  26 H26           -0.7010     3.9619     0.9169 H       
  27 H27           -0.7094     3.9715    -0.8630 H       
  28 H28           -7.2264     5.6318    -0.3106 H       
  29 H29           -7.5953     5.7510     2.2068 H       
  30 H30           -5.3854     4.9959     3.3608 H       
  31 H31           -2.7594     4.1117     2.1578 H       
  32 H32           -2.7831     4.1359    -2.0975 H       
  33 H33           -5.1068     4.9240    -2.1178 H       
@<TRIPOS>BOND
   1    1    2 1
   2    1    8 2
   3    1    9 am
   4    2    3 ar
   5    2    7 ar
   6    3    4 ar
   7    3   21 1
   8    4    5 ar
   9    4   22 1
  10    5    6 ar
  11    5   20 1
  12    6    7 ar
  13    6   23 1
  14    7   24 1
  15    9   10 1
  16    9   25 1
  17   10   16 1
  18   10   26 1
  19   10   27 1
  20   11   12 1
  21   11   19 1
  22   11   28 1
  23   12   13 2
  24   12   29 1
  25   13   14 1
  26   13   30 1
  27   14   15 ar
  28   14   19 ar
  29   15   16 ar
  30   15   31 1
  31   16   17 ar
  32   17   18 ar
  33   17   32 1
  34   18   19 ar
  35   18   33 1

#	End of record

