#	Name: ASD05420009
#	Creating user name:	WinNT
#	Creation time:	15. 06. 2019 20:59

#	Modifying user name:	WinNT
#	Modification time:	15. 06. 2019 20:59

#	Program:	/corina/corina34_cracker 3.40 0067  02.08.2006

@<TRIPOS>MOLECULE
ASD05420009
  34   34    0    0    0
SMALL
NO_CHARGES


@<TRIPOS>ATOM
   1 N1            -0.0170     1.3994     0.0097 N.am    
   2 C2             0.0021    -0.0041     0.0020 C.ar    
   3 C3             0.0230    -0.7070     1.2015 C.ar    
   4 C4             0.0412    -2.0896     1.1900 C.ar    
   5 C5             0.0391    -2.7722    -0.0137 C.ar    
   6 C6             0.0188    -2.0742    -1.2076 C.ar    
   7 C7            -0.0058    -0.6925    -1.2022 C.ar    
   8 N8            -0.0342     0.0525    -2.4809 N.pl3   
   9 O9            -0.0410    -0.5522    -3.5382 O.2     
  10 O10           -0.0506     1.2704    -2.4759 O.2     
  11 F11            0.0260    -0.0401     2.3764 F       
  12 Br12           0.0647    -4.6630    -0.0263 Br      
  13 C13            1.1409     2.0891     0.0024 C.2     
  14 O14            1.1245     3.3036     0.0091 O.2     
  15 O15            2.3156     1.4320    -0.0124 O.3     
  16 C16            3.5224     2.2393    -0.0195 C.3     
  17 C17            4.7483     1.3239    -0.0362 C.3     
  18 C18           -1.1932     2.0573     0.0189 C.2     
  19 O19           -2.2368     1.4358     0.0205 O.2     
  20 O20           -1.2114     3.4032     0.0263 O.3     
  21 C21           -2.5140     4.0447     0.0360 C.3     
  22 C22           -2.3341     5.5641     0.0434 C.3     
  23 H23            0.0575    -2.6369     2.1209 H       
  24 H24            0.0179    -2.6098    -2.1454 H       
  25 H25            3.5303     2.8732    -0.9063 H       
  26 H26            3.5473     2.8636     0.8736 H       
  27 H27            5.6543     1.9300    -0.0416 H       
  28 H28            4.7404     0.6901     0.8505 H       
  29 H29            4.7234     0.6996    -0.9293 H       
  30 H30           -3.0712     3.7492    -0.8530 H       
  31 H31           -3.0627     3.7395     0.9269 H       
  32 H32           -1.7769     5.8597     0.9323 H       
  33 H33           -1.7854     5.8694    -0.8476 H       
  34 H34           -3.3119     6.0457     0.0506 H       
@<TRIPOS>BOND
   1    1    2 1
   2    1   13 am
   3    1   18 am
   4    2    3 ar
   5    2    7 ar
   6    3    4 ar
   7    3   11 1
   8    4    5 ar
   9    4   23 1
  10    5    6 ar
  11    5   12 1
  12    6    7 ar
  13    6   24 1
  14    7    8 1
  15    8    9 2
  16    8   10 2
  17   13   14 2
  18   13   15 1
  19   15   16 1
  20   16   17 1
  21   16   25 1
  22   16   26 1
  23   17   27 1
  24   17   28 1
  25   17   29 1
  26   18   19 2
  27   18   20 1
  28   20   21 1
  29   21   22 1
  30   21   30 1
  31   21   31 1
  32   22   32 1
  33   22   33 1
  34   22   34 1

#	End of record

