#	Name: ASD01811451
#	Creating user name:	WinNT
#	Creation time:	15. 06. 2019 19:26

#	Modifying user name:	WinNT
#	Modification time:	15. 06. 2019 19:26

#	Program:	/corina/corina34_cracker 3.40 0067  02.08.2006

@<TRIPOS>MOLECULE
ASD01811451
  64   68    0    0    0
SMALL
NO_CHARGES


@<TRIPOS>ATOM
   1 C1            -7.3567     2.2251    -3.9969 C.1     
   2 C2            -6.3758     3.0158    -3.3164 C.ar    
   3 C3            -5.2069     2.4221    -2.8357 C.ar    
   4 C4            -4.2661     3.1898    -2.1810 C.ar    
   5 C5            -4.4789     4.5449    -1.9998 C.ar    
   6 C6            -5.6351     5.1395    -2.4731 C.ar    
   7 C7            -6.5811     4.3850    -3.1355 C.ar    
   8 N8            -8.1349     1.5978    -4.5367 N.1     
   9 N9            -2.4212     7.7924    -0.2279 N.am    
  10 C10           -1.8686     7.3012    -1.4975 C.3     
  11 C11           -2.9422     6.4791    -2.2174 C.3     
  12 C12           -3.4468     5.3769    -1.2832 C.3     
  13 C13           -4.0754     6.0085    -0.0390 C.3     
  14 C14           -3.0146     6.8253     0.7055 C.3     
  15 C15           -2.3796     9.1045     0.0772 C.2     
  16 C16           -3.0220     9.5966     1.3148 C.ar    
  17 C17           -3.9802    10.6109     1.2505 C.ar    
  18 C18           -4.5808    11.0713     2.4051 C.ar    
  19 C19           -4.2388    10.5335     3.6304 C.ar    
  20 C20           -3.2827     9.5193     3.7088 C.ar    
  21 C21           -2.6771     9.0456     2.5471 C.ar    
  22 O22           -1.8139     9.8834    -0.6649 O.2     
  23 C23           -2.9174     8.9449     5.0222 C.2     
  24 N24           -2.0005     7.9525     5.2340 N.pl3   
  25 C25           -1.9692     7.7259     6.5730 C.2     
  26 C26           -2.8589     8.5736     7.1459 C.2     
  27 N27           -3.4161     9.3066     6.1871 N.2     
  28 C28           -1.1370     6.7444     7.3569 C.3     
  29 C29           -3.1060     8.6104     8.6350 C.3     
  30 C30           -2.5208     7.3252     9.2382 C.3     
  31 O31           -1.1962     7.1192     8.7402 O.3     
  32 C32           -4.3588    11.2042    -0.0820 C.3     
  33 C33           -4.8990    11.0430     4.8856 C.3     
  34 C34           -4.0197    12.1209     5.5228 C.3     
  35 H35           -5.0399     1.3644    -2.9759 H       
  36 H36           -3.3616     2.7319    -1.8088 H       
  37 H37           -5.7950     6.1977    -2.3280 H       
  38 H38           -7.4810     4.8513    -3.5087 H       
  39 H39           -1.5769     8.1467    -2.1205 H       
  40 H40           -0.9996     6.6737    -1.2994 H       
  41 H41           -3.7723     7.1286    -2.4953 H       
  42 H42           -2.5157     6.0292    -3.1139 H       
  43 H43           -2.6118     4.7426    -0.9857 H       
  44 H44           -4.8948     6.6625    -0.3375 H       
  45 H45           -4.4555     5.2237     0.6149 H       
  46 H46           -2.2391     6.1590     1.0834 H       
  47 H47           -3.4791     7.3568     1.5361 H       
  48 H48           -5.3211    11.8557     2.3500 H       
  49 H49           -1.9404     8.2578     2.6018 H       
  50 H50           -1.4743     7.4975     4.5580 H       
  51 H51           -1.5370     5.7384     7.2302 H       
  52 H52           -0.1042     6.7774     7.0100 H       
  53 H53           -2.6134     9.4801     9.0698 H       
  54 H54           -4.1774     8.6557     8.8306 H       
  55 H55           -2.4902     7.4154    10.3240 H       
  56 H56           -3.1478     6.4772     8.9628 H       
  57 H57           -5.1275    10.5883    -0.5488 H       
  58 H58           -4.7421    12.2139     0.0655 H       
  59 H59           -3.4806    11.2396    -0.7267 H       
  60 H60           -5.8719    11.4675     4.6379 H       
  61 H61           -5.0300    10.2193     5.5873 H       
  62 H62           -4.4971    12.4894     6.4307 H       
  63 H63           -3.0468    11.6964     5.7706 H       
  64 H64           -3.8887    12.9446     4.8211 H       
@<TRIPOS>BOND
   1    1    2 1
   2    1    8 3
   3    2    3 ar
   4    2    7 ar
   5    3    4 ar
   6    3   35 1
   7    4    5 ar
   8    4   36 1
   9    5    6 ar
  10    5   12 1
  11    6    7 ar
  12    6   37 1
  13    7   38 1
  14    9   10 1
  15    9   14 1
  16    9   15 am
  17   10   11 1
  18   10   39 1
  19   10   40 1
  20   11   12 1
  21   11   41 1
  22   11   42 1
  23   12   13 1
  24   12   43 1
  25   13   14 1
  26   13   44 1
  27   13   45 1
  28   14   46 1
  29   14   47 1
  30   15   16 1
  31   15   22 2
  32   16   17 ar
  33   16   21 ar
  34   17   18 ar
  35   17   32 1
  36   18   19 ar
  37   18   48 1
  38   19   20 ar
  39   19   33 1
  40   20   21 ar
  41   20   23 1
  42   21   49 1
  43   23   24 1
  44   23   27 2
  45   24   25 1
  46   24   50 1
  47   25   26 2
  48   25   28 1
  49   26   27 1
  50   26   29 1
  51   28   31 1
  52   28   51 1
  53   28   52 1
  54   29   30 1
  55   29   53 1
  56   29   54 1
  57   30   31 1
  58   30   55 1
  59   30   56 1
  60   32   57 1
  61   32   58 1
  62   32   59 1
  63   33   34 1
  64   33   60 1
  65   33   61 1
  66   34   62 1
  67   34   63 1
  68   34   64 1

#	End of record

