#	Name: ASD04590402
#	Creating user name:	WinNT
#	Creation time:	15. 06. 2019 20:50

#	Modifying user name:	WinNT
#	Modification time:	15. 06. 2019 20:50

#	Program:	/corina/corina34_cracker 3.40 0067  02.08.2006

@<TRIPOS>MOLECULE
ASD04590402
  57   61    0    0    0
SMALL
NO_CHARGES


@<TRIPOS>ATOM
   1 C1            -0.0169     1.3923     0.0097 C.ar    
   2 C2             0.0021    -0.0041     0.0020 C.ar    
   3 C3            -2.4013    -0.0379     0.0248 C.ar    
   4 C4            -2.4140     1.3672     0.0440 C.ar    
   5 C5            -1.2191     2.0735     0.0306 C.ar    
   6 N6            -3.6929    -0.4513     0.0448 N.2     
   7 C7            -4.4887     0.5899     0.0747 C.2     
   8 N8            -3.7458     1.7406     0.0755 N.pl3   
   9 C9            -5.9649     0.5311     0.1024 C.2     
  10 C10           -6.7501    -0.6448     0.1017 C.2     
  11 C11           -8.0527    -0.2719     0.1319 C.2     
  12 N12           -8.0970     1.0861     0.1510 N.pl3   
  13 N13           -6.7813     1.5659     0.1378 N.2     
  14 N14           -6.2665    -1.9636     0.0742 N.am    
  15 C15           -7.1302    -2.9982     0.0770 C.2     
  16 O16           -8.3251    -2.7908     0.1032 O.2     
  17 C17           -6.6115    -4.4129     0.0475 C.3     
  18 C18           -1.1778    -0.7174     0.0095 C.ar    
  19 O19            1.1915    -0.6643    -0.0133 O.3     
  20 C20           -5.7400    -4.6641     1.2811 C.3     
  21 C21           -7.7901    -5.3903     0.0572 C.3     
  22 C22           -7.2568    -6.8244     0.0887 C.3     
  23 N23           -6.4302    -7.0145     1.2874 N.3     
  24 C24           -5.2661    -6.1193     1.2771 C.3     
  25 C25            1.1408    -2.0924    -0.0205 C.3     
  26 O26            1.1536     2.0851     0.0022 O.3     
  27 C27            1.0634     3.5113     0.0108 C.3     
  28 C28           -6.0386    -8.3358     1.4156 C.ar    
  29 N29           -5.2840    -8.6897     2.4455 N.ar    
  30 C30           -4.8926    -9.9441     2.5974 C.ar    
  31 C31           -5.2813   -10.8915     1.6635 C.ar    
  32 C32           -6.0707   -10.4871     0.5984 C.ar    
  33 N33           -6.4318    -9.2177     0.5084 N.ar    
  34 H34           -1.2289     3.1534     0.0368 H       
  35 H35           -4.0892     2.6476     0.0946 H       
  36 H36           -8.9043    -0.9361     0.1390 H       
  37 H37           -8.9005     1.6290     0.1733 H       
  38 H38           -5.3110    -2.1295     0.0532 H       
  39 H39           -6.0195    -4.5650    -0.8550 H       
  40 H40           -1.1579    -1.7972     0.0031 H       
  41 H41           -4.8759    -4.0000     1.2576 H       
  42 H42           -6.3219    -4.4734     2.1828 H       
  43 H43           -8.4043    -5.2110     0.9396 H       
  44 H44           -8.3908    -5.2451    -0.8406 H       
  45 H45           -8.0936    -7.5227     0.1101 H       
  46 H46           -6.6540    -7.0074    -0.8009 H       
  47 H47           -4.6727    -6.3056     0.3820 H       
  48 H48           -4.6570    -6.3054     2.1617 H       
  49 H49            0.6232    -2.4420     0.8728 H       
  50 H50            0.6056    -2.4325    -0.9070 H       
  51 H51            2.1548    -2.4919    -0.0327 H       
  52 H52            2.0660     3.9388     0.0035 H       
  53 H53            0.5192     3.8462    -0.8723 H       
  54 H54            0.5362     3.8366     0.9076 H       
  55 H55           -4.2772   -10.2264     3.4389 H       
  56 H56           -4.9755   -11.9225     1.7633 H       
  57 H57           -6.3904   -11.2004    -0.1468 H       
@<TRIPOS>BOND
   1    1    2 ar
   2    1   26 1
   3    1    5 ar
   4    2   18 ar
   5    2   19 1
   6    3    4 ar
   7    3    6 1
   8    3   18 ar
   9    4    5 ar
  10    4    8 1
  11    5   34 1
  12    6    7 2
  13    7    8 1
  14    7    9 1
  15    8   35 1
  16    9   10 1
  17    9   13 2
  18   10   11 2
  19   10   14 1
  20   11   12 1
  21   11   36 1
  22   12   13 1
  23   12   37 1
  24   14   15 am
  25   14   38 1
  26   15   16 2
  27   15   17 1
  28   17   21 1
  29   17   20 1
  30   17   39 1
  31   18   40 1
  32   19   25 1
  33   20   24 1
  34   20   41 1
  35   20   42 1
  36   21   22 1
  37   21   43 1
  38   21   44 1
  39   22   23 1
  40   22   45 1
  41   22   46 1
  42   23   24 1
  43   23   28 1
  44   24   47 1
  45   24   48 1
  46   25   49 1
  47   25   50 1
  48   25   51 1
  49   26   27 1
  50   27   52 1
  51   27   53 1
  52   27   54 1
  53   28   29 ar
  54   28   33 ar
  55   29   30 ar
  56   30   31 ar
  57   30   55 1
  58   31   32 ar
  59   31   56 1
  60   32   33 ar
  61   32   57 1

#	End of record

