#	Name: ASD00840817
#	Creating user name:	WinNT
#	Creation time:	15. 06. 2019 18:40

#	Modifying user name:	WinNT
#	Modification time:	15. 06. 2019 18:40

#	Program:	/corina/corina34_cracker 3.40 0067  02.08.2006

@<TRIPOS>MOLECULE
ASD00840817
  88   93    0    0    0
SMALL
NO_CHARGES


@<TRIPOS>ATOM
   1 F1             6.0464    -1.9761    -2.0139 F       
   2 N2             1.0510     1.4357    -0.7471 N.ar    
   3 C3             1.3102     0.1430    -0.8506 C.ar    
   4 C4             1.2282    -0.6865     0.2608 C.ar    
   5 C5             0.8709    -0.1425     1.4820 C.ar    
   6 C6             0.6068     1.2188     1.5486 C.ar    
   7 C7             0.7079     1.9832     0.4035 C.ar    
   8 C8             1.5240    -2.1591     0.1380 C.3     
   9 C9             1.2356    -2.8684     1.4438 C.2     
  10 C10            0.7063    -2.7756    -0.9987 C.3     
  11 C11           -0.7552    -2.4754    -0.7863 C.2     
  12 N12           -1.6784    -3.0002    -1.6161 N.am    
  13 O13           -1.1005    -1.7616     0.1314 O.2     
  14 C14           -3.0978    -2.6346    -1.4942 C.3     
  15 C15           -3.6096    -2.2034    -2.8728 C.3     
  16 N16           -3.3224    -3.2611    -3.8509 N.3     
  17 C17           -1.8761    -3.4706    -4.0000 C.3     
  18 C18           -1.2924    -3.9490    -2.6716 C.3     
  19 C19           -3.9477    -2.9638    -5.1466 C.3     
  20 C20           -3.5258    -4.0192    -6.1725 C.3     
  21 C21           -4.2278    -3.7393    -7.5032 C.3     
  22 N22           -5.6828    -3.7750    -7.3076 N.3     
  23 C23           -6.1170    -2.7388    -6.3620 C.3     
  24 C24           -5.4713    -2.9888    -4.9972 C.3     
  25 H25           -6.1683    -3.6877    -8.1878 H       
  26 O26            0.1612    -2.9404     2.0020 O.2     
  27 N27            2.3923    -3.4037     1.8684 N.am    
  28 C28            3.0021    -2.3855    -0.0859 C.ar    
  29 C29            3.4496    -3.1394     0.9943 C.ar    
  30 C30            3.8640    -1.9968    -1.0876 C.ar    
  31 C31            5.1995    -2.3555    -1.0320 C.ar    
  32 C32            5.6673    -3.1133     0.0465 C.ar    
  33 C33            4.7893    -3.5037     1.0572 C.ar    
  34 C34            2.2522    -5.9663     2.8623 C.ar    
  35 C35            0.9994    -6.3659     2.4206 C.ar    
  36 C36            3.2702    -6.8931     2.9792 C.ar    
  37 C37            3.0412    -8.2176     2.6559 C.ar    
  38 C38            1.7932    -8.6184     2.2154 C.ar    
  39 C39            0.7720    -7.6959     2.0973 C.ar    
  40 H40            1.6168    -9.6537     1.9635 H       
  41 O41           -0.0036    -5.4562     2.3052 O.3     
  42 C42           -1.2672    -5.9389     1.8443 C.3     
  43 C43           -2.2632    -4.7793     1.7794 C.3     
  44 O44            1.6591    -0.3782    -2.0537 O.3     
  45 C45            2.1521    -0.2242    -4.4146 C.3     
  46 C46            1.6169     0.5019    -3.1787 C.3     
  47 S47            2.5470    -4.2769     3.2669 S.o2    
  48 O48            3.9135    -4.1878     3.6465 O.2     
  49 O49            1.4778    -3.8742     4.1118 O.2     
  50 C50            7.0476    -3.4889     0.1124 C.1     
  51 N51            8.1425    -3.7869     0.1647 N.1     
  52 H52            0.7987    -0.7629     2.3630 H       
  53 H53            0.3251     1.6749     2.4861 H       
  54 H54            0.5039     3.0427     0.4500 H       
  55 H55            1.0296    -2.3525    -1.9498 H       
  56 H56            0.8574    -3.8550    -1.0110 H       
  57 H57           -3.6687    -3.4946    -1.1442 H       
  58 H58           -3.2042    -1.8097    -0.7897 H       
  59 H59           -4.6854    -2.0346    -2.8249 H       
  60 H60           -3.1097    -1.2831    -3.1748 H       
  61 H61           -1.6947    -4.2208    -4.7697 H       
  62 H62           -1.4004    -2.5327    -4.2864 H       
  63 H63           -0.2059    -3.9957    -2.7447 H       
  64 H64           -1.6888    -4.9356    -2.4316 H       
  65 H65           -3.6302    -1.9780    -5.4865 H       
  66 H66           -2.4460    -3.9772    -6.3148 H       
  67 H67           -3.8079    -5.0090    -5.8134 H       
  68 H68           -3.9346    -2.7551    -7.8686 H       
  69 H69           -3.9407    -4.4974    -8.2319 H       
  70 H70           -5.8149    -1.7593    -6.7327 H       
  71 H71           -7.2019    -2.7702    -6.2618 H       
  72 H72           -5.7840    -3.9623    -4.6196 H       
  73 H73           -5.7815    -2.2106    -4.2999 H       
  74 H74            3.4969    -1.4117    -1.9179 H       
  75 H75            5.1509    -4.0889     1.8898 H       
  76 H76            4.2458    -6.5825     3.3230 H       
  77 H77            3.8384    -8.9404     2.7473 H       
  78 H78           -0.2027    -8.0096     1.7538 H       
  79 H79           -1.1501    -6.3732     0.8514 H       
  80 H80           -1.6386    -6.6988     2.5318 H       
  81 H81           -3.2271    -5.1474     1.4278 H       
  82 H82           -2.3804    -4.3449     2.7722 H       
  83 H83           -1.8918    -4.0193     1.0919 H       
  84 H84            1.4866    -1.0496    -4.6676 H       
  85 H85            2.2020     0.4719    -5.2518 H       
  86 H86            3.1488    -0.6123    -4.2048 H       
  87 H87            0.5880     0.8138    -3.3577 H       
  88 H88            2.2325     1.3786    -2.9775 H       
@<TRIPOS>BOND
   1    1   31 1
   2    2    3 ar
   3    2    7 ar
   4    3    4 ar
   5    3   44 1
   6    4    5 ar
   7    4    8 1
   8    5    6 ar
   9    5   52 1
  10    6    7 ar
  11    6   53 1
  12    7   54 1
  13    8    9 1
  14    8   10 1
  15    8   28 1
  16    9   26 2
  17    9   27 am
  18   10   11 1
  19   10   55 1
  20   10   56 1
  21   11   12 am
  22   11   13 2
  23   12   14 1
  24   12   18 1
  25   14   15 1
  26   14   57 1
  27   14   58 1
  28   15   16 1
  29   15   59 1
  30   15   60 1
  31   16   17 1
  32   16   19 1
  33   17   18 1
  34   17   61 1
  35   17   62 1
  36   18   63 1
  37   18   64 1
  38   19   20 1
  39   19   24 1
  40   19   65 1
  41   20   21 1
  42   20   66 1
  43   20   67 1
  44   21   22 1
  45   21   68 1
  46   21   69 1
  47   22   23 1
  48   22   25 1
  49   23   24 1
  50   23   70 1
  51   23   71 1
  52   24   72 1
  53   24   73 1
  54   27   47 am
  55   27   29 1
  56   28   29 ar
  57   28   30 ar
  58   29   33 ar
  59   30   31 ar
  60   30   74 1
  61   31   32 ar
  62   32   33 ar
  63   32   50 1
  64   33   75 1
  65   34   35 ar
  66   34   36 ar
  67   34   47 1
  68   35   41 1
  69   35   39 ar
  70   36   37 ar
  71   36   76 1
  72   37   38 ar
  73   37   77 1
  74   38   39 ar
  75   38   40 1
  76   39   78 1
  77   41   42 1
  78   42   43 1
  79   42   79 1
  80   42   80 1
  81   43   81 1
  82   43   82 1
  83   43   83 1
  84   44   46 1
  85   45   46 1
  86   45   84 1
  87   45   85 1
  88   45   86 1
  89   46   87 1
  90   46   88 1
  91   47   48 2
  92   47   49 2
  93   50   51 3

#	End of record

