#	Name: ASD01910639
#	Creating user name:	WinNT
#	Creation time:	15. 06. 2019 19:56

#	Modifying user name:	WinNT
#	Modification time:	15. 06. 2019 19:56

#	Program:	/corina/corina34_cracker 3.40 0067  02.08.2006

@<TRIPOS>MOLECULE
ASD01910639
  35   37    0    0    0
SMALL
NO_CHARGES


@<TRIPOS>ATOM
   1 C1            -0.0167     1.3797     0.0096 C.ar    
   2 C2             0.0021    -0.0041     0.0020 C.ar    
   3 C3             1.2058    -0.6866    -0.0127 C.ar    
   4 C4             2.3967     0.0088    -0.0198 C.ar    
   5 C5             2.3858     1.4064    -0.0127 C.ar    
   6 C6             1.1661     2.0888     0.0021 C.ar    
   7 C7             3.6182     2.1357    -0.0195 C.1     
   8 C8             4.6285     2.7335    -0.0252 C.1     
   9 C9             5.8609     3.4628    -0.0321 C.ar    
  10 C10            5.8449     4.8626    -0.0249 C.ar    
  11 C11            7.0203     5.5545    -0.0312 C.ar    
  12 C12            8.2384     4.8648    -0.0443 C.ar    
  13 C13            8.2568     3.4698    -0.0522 C.ar    
  14 C14            7.0798     2.7751    -0.0402 C.ar    
  15 C15            7.0294     7.0604    -0.0249 C.3     
  16 C16            8.2282     7.5694     0.7722 C.3     
  17 N17            9.4649     6.9392     0.3184 N.am    
  18 C18            9.4943     5.6424    -0.0481 C.2     
  19 O19           10.5414     5.1193    -0.3773 O.2     
  20 C20           10.6960     7.7311     0.2599 C.3     
  21 H21           -0.9600     1.9055     0.0169 H       
  22 H22           -0.9274    -0.5541     0.0079 H       
  23 H23            1.2127    -1.7666    -0.0182 H       
  24 H24            3.3354    -0.5251    -0.0306 H       
  25 H25            1.1499     3.1687     0.0074 H       
  26 H26            4.9043     5.3933    -0.0146 H       
  27 H27            9.1982     2.9406    -0.0634 H       
  28 H28            7.0903     1.6951    -0.0458 H       
  29 H29            7.0942     7.4264    -1.0496 H       
  30 H30            6.1095     7.4261     0.4314 H       
  31 H31            8.3094     8.6490     0.6461 H       
  32 H32            8.0779     7.3436     1.8279 H       
  33 H33           11.2198     7.6593     1.2130 H       
  34 H34           11.3358     7.3497    -0.5360 H       
  35 H35           10.4484     8.7734     0.0589 H       
@<TRIPOS>BOND
   1    1    2 ar
   2    1    6 ar
   3    1   21 1
   4    2    3 ar
   5    2   22 1
   6    3    4 ar
   7    3   23 1
   8    4    5 ar
   9    4   24 1
  10    5    6 ar
  11    5    7 1
  12    6   25 1
  13    7    8 3
  14    8    9 1
  15    9   10 ar
  16    9   14 ar
  17   10   11 ar
  18   10   26 1
  19   11   12 ar
  20   11   15 1
  21   12   13 ar
  22   12   18 1
  23   13   14 ar
  24   13   27 1
  25   14   28 1
  26   15   16 1
  27   15   29 1
  28   15   30 1
  29   16   17 1
  30   16   31 1
  31   16   32 1
  32   17   18 am
  33   17   20 1
  34   18   19 2
  35   20   33 1
  36   20   34 1
  37   20   35 1

#	End of record

