#	Name: ASD01040022
#	Creating user name:	WinNT
#	Creation time:	15. 06. 2019 18:58

#	Modifying user name:	WinNT
#	Modification time:	15. 06. 2019 18:58

#	Program:	/corina/corina34_cracker 3.40 0067  02.08.2006

@<TRIPOS>MOLECULE
ASD01040022
  39   41    0    0    0
SMALL
NO_CHARGES


@<TRIPOS>ATOM
   1 O1            -0.0163     1.3545     0.0095 O.3     
   2 C2             0.0598    -4.2566    -0.0214 C.2     
   3 C3             1.2808    -4.9981     0.2809 C.2     
   4 C4             1.2189    -6.3384     0.2475 C.2     
   5 C5             0.0396    -2.7740    -0.0132 C.ar    
   6 C6             2.5437    -4.2956     0.6124 C.ar    
   7 C7             0.0186    -2.0689    -1.2161 C.ar    
   8 C8             0.0004    -0.6904    -1.2052 C.ar    
   9 C9             0.0021    -0.0041     0.0020 C.ar    
  10 C10            0.0230    -0.7031     1.2012 C.ar    
  11 C11            2.9947    -4.2541     1.9313 C.ar    
  12 C12            4.1695    -3.6000     2.2363 C.ar    
  13 C13            4.9034    -2.9830     1.2318 C.ar    
  14 C14            4.4571    -3.0226    -0.0822 C.ar    
  15 C15            3.2857    -3.6801    -0.3946 C.ar    
  16 C16            0.0169    -2.8129    -2.5267 C.3     
  17 C17            2.1986    -4.9229     3.0221 C.3     
  18 C18           -1.0423    -4.9652    -0.3123 C.2     
  19 S19           -0.4792    -6.6508    -0.1906 S.o2    
  20 C20            0.0359    -2.0822     1.1970 C.ar    
  21 O21            6.0577    -2.3344     1.5364 O.3     
  22 O22           -0.4931    -7.2067    -1.4983 O.2     
  23 O23           -1.1152    -7.2387     0.9360 O.2     
  24 H24            0.8616     1.7598     0.0033 H       
  25 H25            2.0059    -7.0526     0.4392 H       
  26 H26           -0.0154    -0.1437    -2.1365 H       
  27 H27            0.0245    -0.1665     2.1385 H       
  28 H28            4.5191    -3.5672     3.2576 H       
  29 H29            5.0301    -2.5417    -0.8612 H       
  30 H30            2.9391    -3.7106    -1.4170 H       
  31 H31           -1.0111    -3.0066    -2.8331 H       
  32 H32            0.5153    -2.2113    -3.2867 H       
  33 H33            0.5450    -3.7590    -2.4081 H       
  34 H34            2.5306    -5.9552     3.1334 H       
  35 H35            2.3490    -4.3897     3.9608 H       
  36 H36            1.1405    -4.9077     2.7611 H       
  37 H37           -2.0290    -4.6023    -0.5594 H       
  38 H38            0.0521    -2.6255     2.1303 H       
  39 H39            5.9378    -1.4004     1.7564 H       
@<TRIPOS>BOND
   1    1    9 1
   2    1   24 1
   3    2   18 2
   4    2    3 1
   5    2    5 1
   6    3    4 2
   7    3    6 1
   8    4   19 1
   9    4   25 1
  10    5    7 ar
  11    5   20 ar
  12    6   11 ar
  13    6   15 ar
  14    7   16 1
  15    7    8 ar
  16    8   26 1
  17    8    9 ar
  18    9   10 ar
  19   10   20 ar
  20   10   27 1
  21   11   17 1
  22   11   12 ar
  23   12   28 1
  24   12   13 ar
  25   13   14 ar
  26   13   21 1
  27   14   15 ar
  28   14   29 1
  29   15   30 1
  30   16   31 1
  31   16   32 1
  32   16   33 1
  33   17   34 1
  34   17   35 1
  35   17   36 1
  36   18   19 1
  37   18   37 1
  38   19   23 2
  39   19   22 2
  40   20   38 1
  41   21   39 1

#	End of record

