#	Name: ASD01815966
#	Creating user name:	WinNT
#	Creation time:	15. 06. 2019 19:34

#	Modifying user name:	WinNT
#	Modification time:	15. 06. 2019 19:34

#	Program:	/corina/corina34_cracker 3.40 0067  02.08.2006

@<TRIPOS>MOLECULE
ASD01815966
  50   55    0    0    0
SMALL
NO_CHARGES


@<TRIPOS>ATOM
   1 C1            -0.0168     1.3813    -0.0551 C.ar    
   2 C2             0.0020    -0.0038    -0.0619 C.ar    
   3 C3             1.1998    -0.6916    -0.0552 C.ar    
   4 C4             2.4048     0.0058    -0.0418 C.ar    
   5 C5             2.3827     1.4099    -0.0354 C.ar    
   6 C6             1.1681     2.0925    -0.0419 C.ar    
   7 N7             3.6091    -0.6782    -0.0345 N.pl3   
   8 C8             4.8006    -0.0600    -0.0212 C.2     
   9 C9             4.9035     1.3090    -0.0139 C.2     
  10 C10            3.6706     2.1290    -0.0213 C.2     
  11 C11            6.0006     2.2715     0.0005 C.2     
  12 N12            5.4282     3.4947     0.0010 N.am    
  13 N13            4.0359     3.3789    -0.0122 N.2     
  14 C14            6.1302     4.7067     0.0126 C.ar    
  15 O15            7.1950     2.0213     0.0109 O.2     
  16 C16            3.5814    -2.1429    -0.0411 C.3     
  17 C17            3.4352    -2.6362    -1.4576 C.ar    
  18 C18            4.5675    -2.8820    -2.2157 C.ar    
  19 C19            4.4237    -3.3360    -3.5191 C.ar    
  20 C20            3.1370    -3.5270    -4.0140 C.ar    
  21 C21            2.0511    -3.2581    -3.1913 C.ar    
  22 N22            2.2306    -2.8332    -1.9569 N.ar    
  23 F23            1.1488     3.4433    -0.0357 F       
  24 F24            1.2021    -2.0426    -0.0611 F       
  25 C25            6.5801     5.2618    -1.1779 C.ar    
  26 C26            7.2722     6.4570    -1.1633 C.ar    
  27 C27            7.5178     7.1021     0.0351 C.ar    
  28 C28            7.0720     6.5536     1.2234 C.ar    
  29 C29            6.3734     5.3599     1.2161 C.ar    
  30 F30            5.9376     4.8238     2.3771 F       
  31 F31            5.7971    -2.6818    -1.6931 F       
  32 N32            2.9400    -3.9839    -5.3248 N.pl3   
  33 C33            1.7459    -4.2077    -5.9185 C.2     
  34 C34            1.9870    -4.6401    -7.1779 C.2     
  35 C35            3.3735    -4.6824    -7.3609 C.2     
  36 N36            3.9453    -4.2836    -6.2532 N.2     
  37 H37           -0.9601     1.9070    -0.0646 H       
  38 H38           -0.9289    -0.5512    -0.0723 H       
  39 H39            5.7018    -0.6551    -0.0158 H       
  40 H40            4.5097    -2.5258     0.3829 H       
  41 H41            2.7383    -2.4931     0.5544 H       
  42 H42            5.2886    -3.5358    -4.1342 H       
  43 H43            1.0486    -3.4031    -3.5659 H       
  44 H44            6.3894     4.7591    -2.1145 H       
  45 H45            7.6224     6.8885    -2.0894 H       
  46 H46            8.0596     8.0363     0.0428 H       
  47 H47            7.2658     7.0597     2.1576 H       
  48 H48            0.7744    -4.0671    -5.4683 H       
  49 H49            1.2409    -4.9061    -7.9121 H       
  50 H50            3.8840    -4.9869    -8.2626 H       
@<TRIPOS>BOND
   1    1    2 ar
   2    1    6 ar
   3    1   37 1
   4    2    3 ar
   5    2   38 1
   6    3    4 ar
   7    3   24 1
   8    4    5 ar
   9    4    7 1
  10    5    6 ar
  11    5   10 1
  12    6   23 1
  13    7    8 1
  14    7   16 1
  15    8    9 2
  16    8   39 1
  17    9   10 1
  18    9   11 1
  19   10   13 2
  20   11   12 am
  21   11   15 2
  22   12   13 1
  23   12   14 1
  24   14   25 ar
  25   14   29 ar
  26   16   17 1
  27   16   40 1
  28   16   41 1
  29   17   18 ar
  30   17   22 ar
  31   18   19 ar
  32   18   31 1
  33   19   20 ar
  34   19   42 1
  35   20   21 ar
  36   20   32 1
  37   21   22 ar
  38   21   43 1
  39   25   26 ar
  40   25   44 1
  41   26   27 ar
  42   26   45 1
  43   27   28 ar
  44   27   46 1
  45   28   29 ar
  46   28   47 1
  47   29   30 1
  48   32   33 1
  49   32   36 1
  50   33   34 2
  51   33   48 1
  52   34   35 1
  53   34   49 1
  54   35   36 2
  55   35   50 1

#	End of record

