#	Name: ASD04882139
#	Creating user name:	WinNT
#	Creation time:	15. 06. 2019 20:54

#	Modifying user name:	WinNT
#	Modification time:	15. 06. 2019 20:54

#	Program:	/corina/corina34_cracker 3.40 0067  02.08.2006

@<TRIPOS>MOLECULE
ASD04882139
  82   87    0    0    0
SMALL
NO_CHARGES


@<TRIPOS>ATOM
   1 C1            -0.4456     1.4884    -0.5648 C.2     
   2 C2            -0.3411     0.0485    -0.3084 C.2     
   3 O3             0.6761    -0.4108     0.1773 O.2     
   4 N4            -1.3712    -0.7663    -0.6104 N.am    
   5 C5            -1.2327    -2.1530    -0.4673 C.ar    
   6 C6            -2.3329    -2.9313    -0.0951 C.ar    
   7 C7            -2.1970    -4.3071     0.0468 C.ar    
   8 C8            -0.9785    -4.9090    -0.1785 C.ar    
   9 C9             0.1251    -4.1370    -0.5508 C.ar    
  10 C10           -0.0101    -2.7535    -0.6993 C.ar    
  11 N11           -3.5663    -2.3271     0.1342 N.3     
  12 C12           -3.5151    -1.4579     1.3181 C.3     
  13 C13           -4.8629    -0.7532     1.4889 C.3     
  14 N14           -5.9254    -1.7595     1.6235 N.3     
  15 C15           -5.9766    -2.6286     0.4396 C.3     
  16 C16           -4.6288    -3.3334     0.2688 C.3     
  17 C17           -7.1626    -1.1534     1.8535 C.ar    
  18 C18           -7.3940    -0.4723     3.0421 C.ar    
  19 C19           -9.6134     0.0477     2.3088 C.ar    
  20 C20           -8.1623    -1.2254     0.8920 C.ar    
  21 C21           -8.6181     0.1261     3.2660 C.ar    
  22 C22           -9.3845    -0.6245     1.1224 C.ar    
  23 C23            1.4300    -4.7818    -0.7916 C.2     
  24 N24            1.5582    -6.1162    -0.6527 N.am    
  25 O25            2.3899    -4.1093    -1.1155 O.2     
  26 C26            2.8540    -6.7565    -0.8918 C.3     
  27 C27            2.7269    -8.2646    -0.6674 C.3     
  28 C28           -6.3105    -0.3871     4.0860 C.3     
  29 C29            0.5178     2.4214    -0.3076 C.2     
  30 C30           -0.0045     3.6615    -0.7069 C.2     
  31 C31           -1.2481     3.4342    -1.1843 C.2     
  32 O32           -1.5084     2.1229    -1.1016 O.3     
  33 N33            4.0227    -8.9048    -0.9066 N.am    
  34 C34            4.8974    -9.0555     0.1077 C.2     
  35 C35            4.3678    -9.3813    -2.2483 C.3     
  36 C36            6.1566    -9.7986    -0.1067 C.2     
  37 O37            4.6504    -8.5800     1.1990 O.2     
  38 C38            7.2410    -9.1719    -0.6415 C.2     
  39 C39            6.2516   -11.2317     0.2645 C.2     
  40 C40            8.4607   -10.0185    -0.7949 C.3     
  41 C41            7.4432   -11.7612     0.5843 C.2     
  42 C42            8.6064   -10.8342     0.5228 C.3     
  43 O43            9.9030   -11.3951     0.3292 O.3     
  44 C44           10.6547   -10.2918    -0.2412 C.3     
  45 O45            9.7271    -9.3856    -0.8829 O.3     
  46 H46           -2.2085    -0.3927    -0.9269 H       
  47 H47           -3.0486    -4.9057     0.3348 H       
  48 H48           -0.8761    -5.9783    -0.0671 H       
  49 H49            0.8401    -2.1548    -0.9913 H       
  50 H50           -3.3047    -2.0598     2.2022 H       
  51 H51           -2.7293    -0.7136     1.1890 H       
  52 H52           -4.8367    -0.1301     2.3830 H       
  53 H53           -5.0606    -0.1300     0.6167 H       
  54 H54           -6.7624    -3.3729     0.5687 H       
  55 H55           -6.1869    -2.0268    -0.4445 H       
  56 H56           -4.6550    -3.9564    -0.6253 H       
  57 H57           -4.4311    -3.9565     1.1410 H       
  58 H58          -10.5700     0.5163     2.4866 H       
  59 H59           -7.9841    -1.7502    -0.0349 H       
  60 H60           -8.7987     0.6557     4.1897 H       
  61 H61          -10.1638    -0.6839     0.3771 H       
  62 H62            0.7925    -6.6527    -0.3943 H       
  63 H63            3.1690    -6.5671    -1.9180 H       
  64 H64            3.5938    -6.3478    -0.2035 H       
  65 H65            2.4120    -8.4539     0.3588 H       
  66 H66            1.9872    -8.6733    -1.3557 H       
  67 H67           -5.7502     0.5384     3.9535 H       
  68 H68           -6.7605    -0.4005     5.0787 H       
  69 H69           -5.6370    -1.2377     3.9809 H       
  70 H70            1.4926     2.2402     0.1206 H       
  71 H71            0.4937     4.6177    -0.6441 H       
  72 H72           -1.9200     4.1856    -1.5720 H       
  73 H73            4.9457    -8.6169    -2.7678 H       
  74 H74            4.9598   -10.2931    -2.1689 H       
  75 H75            3.4547    -9.5883    -2.8063 H       
  76 H76            7.2197    -8.1328    -0.9352 H       
  77 H77            5.3644   -11.8474     0.2779 H       
  78 H78            8.3325   -10.6991    -1.6365 H       
  79 H79            7.5521   -12.7970     0.8701 H       
  80 H80            8.5999   -10.1641     1.3824 H       
  81 H81           11.1877    -9.7632     0.5492 H       
  82 H82           11.3680   -10.6725    -0.9722 H       
@<TRIPOS>BOND
   1    1    2 1
   2    1   29 2
   3    1   32 1
   4    2    3 2
   5    2    4 am
   6    4    5 1
   7    4   46 1
   8    5    6 ar
   9    5   10 ar
  10    6    7 ar
  11    6   11 1
  12    7    8 ar
  13    7   47 1
  14    8    9 ar
  15    8   48 1
  16    9   10 ar
  17    9   23 1
  18   10   49 1
  19   11   12 1
  20   11   16 1
  21   12   13 1
  22   12   50 1
  23   12   51 1
  24   13   14 1
  25   13   52 1
  26   13   53 1
  27   14   15 1
  28   14   17 1
  29   15   16 1
  30   15   54 1
  31   15   55 1
  32   16   56 1
  33   16   57 1
  34   17   18 ar
  35   17   20 ar
  36   18   21 ar
  37   18   28 1
  38   19   21 ar
  39   19   22 ar
  40   19   58 1
  41   20   22 ar
  42   20   59 1
  43   21   60 1
  44   22   61 1
  45   23   24 am
  46   23   25 2
  47   24   26 1
  48   24   62 1
  49   26   27 1
  50   26   63 1
  51   26   64 1
  52   27   33 1
  53   27   65 1
  54   27   66 1
  55   28   67 1
  56   28   68 1
  57   28   69 1
  58   29   30 1
  59   29   70 1
  60   30   31 2
  61   30   71 1
  62   31   32 1
  63   31   72 1
  64   33   34 am
  65   33   35 1
  66   34   36 1
  67   34   37 2
  68   35   73 1
  69   35   74 1
  70   35   75 1
  71   36   38 2
  72   36   39 1
  73   38   40 1
  74   38   76 1
  75   39   41 2
  76   39   77 1
  77   40   42 1
  78   40   45 1
  79   40   78 1
  80   41   42 1
  81   41   79 1
  82   42   43 1
  83   42   80 1
  84   43   44 1
  85   44   45 1
  86   44   81 1
  87   44   82 1

#	End of record

