#	Name: ASD01918125
#	Creating user name:	WinNT
#	Creation time:	15. 06. 2019 20:10

#	Modifying user name:	WinNT
#	Modification time:	15. 06. 2019 20:10

#	Program:	/corina/corina34_cracker 3.40 0067  02.08.2006

@<TRIPOS>MOLECULE
ASD01918125
  38   41    0    0    0
SMALL
NO_CHARGES


@<TRIPOS>ATOM
   1 N1             4.8401    -0.3875    -2.1362 N.ar    
   2 C2             5.3036     0.3033    -3.1567 C.ar    
   3 C3             5.1817     1.6940    -3.1901 C.ar    
   4 C4             4.5572     2.3446    -2.1200 C.ar    
   5 C5             4.0843     1.5720    -1.0669 C.ar    
   6 C6             4.2465     0.1938    -1.1119 C.ar    
   7 O7             3.4712     2.1581    -0.0051 O.3     
   8 C8             3.4400     3.5170     0.0441 C.2     
   9 N9             2.1717     5.5187    -0.0222 N.pl3   
  10 C10            2.2515     4.1635    -0.0657 C.2     
  11 C11            4.6335     4.2290     0.2131 C.2     
  12 C12            4.5934     5.6181     0.2630 C.2     
  13 C13            3.2951     6.2797     0.1355 C.2     
  14 C14            5.8267     6.4030     0.4400 C.2     
  15 N15            5.7682     7.7488     0.4860 N.am    
  16 O16            6.8981     5.8370     0.5449 O.2     
  17 N17            1.1010     6.4204    -0.1088 N.2     
  18 C18            1.6050     7.6277    -0.0107 C.2     
  19 N19            2.9209     7.5493     0.1415 N.2     
  20 C20            5.6878     2.4423    -4.3012 C.1     
  21 C21            6.9176     8.4870     0.7588 C.ar    
  22 N22            8.0840     7.8696     0.8646 N.ar    
  23 C23            6.8303     9.8661     0.9117 C.ar    
  24 C24            7.9800    10.5874     1.1820 C.ar    
  25 C25            9.1819     9.9016     1.2904 C.ar    
  26 C26            9.1960     8.5309     1.1214 C.ar    
  27 N27            6.0893     3.0359    -5.1826 N.1     
  28 H28            5.7835    -0.2109    -3.9763 H       
  29 H29            4.4461     3.4188    -2.1129 H       
  30 H30            3.8807    -0.4115    -0.2957 H       
  31 H31            1.3474     3.5863    -0.1912 H       
  32 H32            5.5739     3.7058     0.3041 H       
  33 H33            4.9257     8.2032     0.3291 H       
  34 H34            1.0353     8.5446    -0.0414 H       
  35 H35            5.8782    10.3677     0.8204 H       
  36 H36            7.9429    11.6597     1.3054 H       
  37 H37           10.0973    10.4349     1.5006 H       
  38 H38           10.1295     7.9936     1.2008 H       
@<TRIPOS>BOND
   1    1    2 ar
   2    1    6 ar
   3    2    3 ar
   4    2   28 1
   5    3    4 ar
   6    3   20 1
   7    4    5 ar
   8    4   29 1
   9    5    6 ar
  10    5    7 1
  11    6   30 1
  12    7    8 1
  13    8   11 1
  14    8   10 2
  15    9   10 1
  16    9   17 1
  17    9   13 1
  18   10   31 1
  19   11   12 2
  20   11   32 1
  21   12   13 1
  22   12   14 1
  23   13   19 2
  24   14   15 am
  25   14   16 2
  26   15   21 1
  27   15   33 1
  28   17   18 2
  29   18   19 1
  30   18   34 1
  31   20   27 3
  32   21   23 ar
  33   21   22 ar
  34   22   26 ar
  35   23   24 ar
  36   23   35 1
  37   24   25 ar
  38   24   36 1
  39   25   26 ar
  40   25   37 1
  41   26   38 1

#	End of record

