#	Name: ASD04430044
#	Creating user name:	WinNT
#	Creation time:	15. 06. 2019 20:49

#	Modifying user name:	WinNT
#	Modification time:	15. 06. 2019 20:49

#	Program:	/corina/corina34_cracker 3.40 0067  02.08.2006

@<TRIPOS>MOLECULE
ASD04430044
  46   49    0    0    0
SMALL
NO_CHARGES


@<TRIPOS>ATOM
   1 N1            -0.0016     1.3354     0.4843 N.am    
   2 C2             0.0278    -0.0207     0.5225 C.2     
   3 N3             1.1203    -0.7111     0.3726 N.2     
   4 C4             2.3081    -0.1221     0.1669 C.2     
   5 C5             2.3772     1.2791     0.1113 C.2     
   6 C6             1.1381     2.0373     0.2826 C.2     
   7 N7             3.5762    -0.5807    -0.0184 N.pl3   
   8 N8             4.4220     0.5229    -0.1870 N.2     
   9 C9             3.7238     1.6228    -0.1120 C.2     
  10 O10            1.1320     3.2551     0.2448 O.2     
  11 C11           -1.2648    -0.7614     0.7495 C.3     
  12 C12           -0.9955    -2.2675     0.7546 C.3     
  13 C13            3.9680    -1.9253    -0.0373 C.ar    
  14 C14            3.2670    -2.8435    -0.8076 C.ar    
  15 C15            3.6562    -4.1687    -0.8245 C.ar    
  16 C16            4.7423    -4.5813    -0.0751 C.ar    
  17 C17            5.4427    -3.6692     0.6932 C.ar    
  18 C18            5.0622    -2.3419     0.7099 C.ar    
  19 C19            5.8259    -1.3487     1.5474 C.3     
  20 C20           -2.2829    -3.0320     1.1092 C.3     
  21 C21           -2.6046    -3.9372    -0.0979 C.3     
  22 C22           -1.2392    -4.1284    -0.8038 C.3     
  23 C23           -0.5797    -2.7348    -0.6555 C.3     
  24 C24            6.6257    -4.1234     1.5089 C.3     
  25 H25           -0.8435     1.8035     0.5980 H       
  26 H26            4.1128     2.6259    -0.2056 H       
  27 H27           -1.6898    -0.4650     1.7085 H       
  28 H28           -1.9666    -0.5205    -0.0489 H       
  29 H29           -0.2109    -2.5038     1.4735 H       
  30 H30            2.4180    -2.5219    -1.3927 H       
  31 H31            3.1113    -4.8834    -1.4235 H       
  32 H32            5.0442    -5.6182    -0.0894 H       
  33 H33            6.6921    -0.9930     0.9895 H       
  34 H34            5.1793    -0.5056     1.7909 H       
  35 H35            6.1586    -1.8291     2.4675 H       
  36 H36           -2.1230    -3.6399     1.9996 H       
  37 H37           -3.0996    -2.3300     1.2776 H       
  38 H38           -2.9977    -4.8965     0.2387 H       
  39 H39           -3.3133    -3.4462    -0.7647 H       
  40 H40           -0.6470    -4.8917    -0.2991 H       
  41 H41           -1.3797    -4.3794    -1.8551 H       
  42 H42           -0.9614    -2.0496    -1.4125 H       
  43 H43            0.5050    -2.8166    -0.7259 H       
  44 H44            7.5330    -4.0408     0.9104 H       
  45 H45            6.7174    -3.4968     2.3961 H       
  46 H46            6.4824    -5.1610     1.8102 H       
@<TRIPOS>BOND
   1    1    2 1
   2    1    6 am
   3    1   25 1
   4    2    3 2
   5    2   11 1
   6    3    4 1
   7    4    5 2
   8    4    7 1
   9    5    6 1
  10    5    9 1
  11    6   10 2
  12    7    8 1
  13    7   13 1
  14    8    9 2
  15    9   26 1
  16   11   12 1
  17   11   27 1
  18   11   28 1
  19   12   20 1
  20   12   23 1
  21   12   29 1
  22   13   14 ar
  23   13   18 ar
  24   14   15 ar
  25   14   30 1
  26   15   16 ar
  27   15   31 1
  28   16   17 ar
  29   16   32 1
  30   17   18 ar
  31   17   24 1
  32   18   19 1
  33   19   33 1
  34   19   34 1
  35   19   35 1
  36   20   21 1
  37   20   36 1
  38   20   37 1
  39   21   22 1
  40   21   38 1
  41   21   39 1
  42   22   23 1
  43   22   40 1
  44   22   41 1
  45   23   42 1
  46   23   43 1
  47   24   44 1
  48   24   45 1
  49   24   46 1

#	End of record

