#	Name: ASD02448177
#	Creating user name:	WinNT
#	Creation time:	15. 06. 2019 20:22

#	Modifying user name:	WinNT
#	Modification time:	15. 06. 2019 20:22

#	Program:	/corina/corina34_cracker 3.40 0067  02.08.2006

@<TRIPOS>MOLECULE
ASD02448177
  82   88    0    0    0
SMALL
NO_CHARGES


@<TRIPOS>ATOM
   1 C1             3.5389    -7.4347    -1.5398 C.ar    
   2 C2             2.9874    -6.4050    -0.8041 C.ar    
   3 C3             2.3305    -5.3655    -1.4486 C.ar    
   4 C4             2.2275    -5.3613    -2.8330 C.ar    
   5 C5             2.7787    -6.3906    -3.5695 C.ar    
   6 C6             3.4365    -7.4306    -2.9251 C.ar    
   7 N7             3.9953    -8.4731    -3.6706 N.am    
   8 C8             5.1092    -9.3541    -3.2963 C.3     
   9 C9             5.4037   -10.3461    -4.3749 C.2     
  10 N10            4.6170   -10.2503    -5.4560 N.am    
  11 S11            3.5448    -9.0059    -5.1860 S.o2    
  12 O12            6.2859   -11.1729    -4.2796 O.2     
  13 O13            2.2522    -9.5844    -5.0679 O.2     
  14 O14            3.8684    -7.9677    -6.1007 O.2     
  15 N15            1.7699    -4.3188    -0.7002 N.pl3   
  16 C16            0.8552    -4.4432     0.3107 C.2     
  17 C17            2.0386    -2.9944    -0.8406 C.2     
  18 N18            1.3310    -2.3262     0.0271 N.2     
  19 C19            0.5895    -3.1865     0.7539 C.2     
  20 C20           -0.3498    -2.8251     1.8440 C.ar    
  21 C21           -0.5280    -1.4881     2.1997 C.ar    
  22 C22           -1.0612    -3.8194     2.5120 C.ar    
  23 C23           -1.9338    -3.4782     3.5255 C.ar    
  24 C24           -2.1033    -2.1507     3.8791 C.ar    
  25 C25           -1.4035    -1.1576     3.2151 C.ar    
  26 Cl26          -3.2030    -1.7289     5.1544 Cl      
  27 Cl27           0.3495    -0.2424     1.3680 Cl      
  28 C28            8.1165    -1.5780     0.6742 C.ar    
  29 C29            9.0437    -2.6174     0.7242 C.ar    
  30 C30            8.4343    -0.3373     1.2240 C.ar    
  31 C31            9.6645    -0.1415     1.8157 C.ar    
  32 C32           10.5860    -1.1787     1.8641 C.ar    
  33 C33           10.2723    -2.4157     1.3172 C.ar    
  34 O34           11.7974    -0.9828     2.4473 O.3     
  35 C35           12.6974    -2.0927     2.4622 C.3     
  36 C36           13.9992    -1.6845     3.1548 C.3     
  37 C37           14.9135    -2.9046     3.2821 C.3     
  38 C38           16.2152    -2.4964     3.9747 C.3     
  39 C39           16.9167    -1.4175     3.1471 C.3     
  40 C40           16.0024    -0.1974     3.0198 C.3     
  41 C41           14.7006    -0.6056     2.3272 C.3     
  42 C42            6.7963    -1.7900     0.0315 C.ar    
  43 C43            5.8684    -0.7515    -0.0192 C.ar    
  44 C44            6.4821    -3.0262    -0.5297 C.ar    
  45 C45            5.2544    -3.2163    -1.1309 C.ar    
  46 C46            4.3370    -2.1821    -1.1780 C.ar    
  47 C47            4.6439    -0.9526    -0.6234 C.ar    
  48 C48            2.9983    -2.3956    -1.8363 C.3     
  49 H49            4.0538    -8.2410    -1.0386 H       
  50 H50            3.0667    -6.4082     0.2730 H       
  51 H51            1.7157    -4.5529    -3.3340 H       
  52 H52            2.6982    -6.3875    -4.6464 H       
  53 H53            5.9976    -8.7491    -3.1154 H       
  54 H54            4.8506    -9.8876    -2.3816 H       
  55 H55            4.6622   -10.8065    -6.2494 H       
  56 H56            0.4276    -5.3621     0.6837 H       
  57 H57           -0.9303    -4.8556     2.2371 H       
  58 H58           -2.4858    -4.2485     4.0435 H       
  59 H59           -1.5393    -0.1233     3.4947 H       
  60 H60            8.8001    -3.5800     0.2993 H       
  61 H61            7.7179     0.4701     1.1864 H       
  62 H62            9.9114     0.8198     2.2416 H       
  63 H63           10.9912    -3.2207     1.3563 H       
  64 H64           12.2424    -2.9221     3.0036 H       
  65 H65           12.9115    -2.4006     1.4388 H       
  66 H66           13.7755    -1.2929     4.1472 H       
  67 H67           14.4138    -3.6731     3.8718 H       
  68 H68           15.1372    -3.2961     2.2898 H       
  69 H69           15.9915    -2.1048     4.9671 H       
  70 H70           16.8666    -3.3656     4.0654 H       
  71 H71           17.8441    -1.1267     3.6405 H       
  72 H72           17.1404    -1.8090     2.1547 H       
  73 H73           15.7787     0.1941     4.0121 H       
  74 H74           16.5021     0.5712     2.4301 H       
  75 H75           14.9243    -0.9971     1.3348 H       
  76 H76           14.0493     0.2636     2.2365 H       
  77 H77            6.1068     0.2087     0.4138 H       
  78 H78            7.1977    -3.8343    -0.4935 H       
  79 H79            5.0099    -4.1740    -1.5661 H       
  80 H80            3.9238    -0.1487    -0.6629 H       
  81 H81            3.1135    -3.0729    -2.6826 H       
  82 H82            2.6090    -1.4396    -2.1864 H       
@<TRIPOS>BOND
   1    1    2 ar
   2    1    6 ar
   3    1   49 1
   4    2    3 ar
   5    2   50 1
   6    3    4 ar
   7    3   15 1
   8    4    5 ar
   9    4   51 1
  10    5    6 ar
  11    5   52 1
  12    6    7 1
  13    7    8 1
  14    7   11 am
  15    8    9 1
  16    8   53 1
  17    8   54 1
  18    9   10 am
  19    9   12 2
  20   10   11 am
  21   10   55 1
  22   11   13 2
  23   11   14 2
  24   15   16 1
  25   15   17 1
  26   16   19 2
  27   16   56 1
  28   17   18 2
  29   17   48 1
  30   18   19 1
  31   19   20 1
  32   20   21 ar
  33   20   22 ar
  34   21   27 1
  35   21   25 ar
  36   22   23 ar
  37   22   57 1
  38   23   24 ar
  39   23   58 1
  40   24   25 ar
  41   24   26 1
  42   25   59 1
  43   28   29 ar
  44   28   30 ar
  45   28   42 1
  46   29   33 ar
  47   29   60 1
  48   30   31 ar
  49   30   61 1
  50   31   32 ar
  51   31   62 1
  52   32   33 ar
  53   32   34 1
  54   33   63 1
  55   34   35 1
  56   35   36 1
  57   35   64 1
  58   35   65 1
  59   36   37 1
  60   36   41 1
  61   36   66 1
  62   37   38 1
  63   37   67 1
  64   37   68 1
  65   38   39 1
  66   38   69 1
  67   38   70 1
  68   39   40 1
  69   39   71 1
  70   39   72 1
  71   40   41 1
  72   40   73 1
  73   40   74 1
  74   41   75 1
  75   41   76 1
  76   42   43 ar
  77   42   44 ar
  78   43   47 ar
  79   43   77 1
  80   44   45 ar
  81   44   78 1
  82   45   46 ar
  83   45   79 1
  84   46   47 ar
  85   46   48 1
  86   47   80 1
  87   48   81 1
  88   48   82 1

#	End of record

